1

   Abaqus 6.9-EF1                                  Date 09-Oct-2015   Time 17:27:25
   For use at UNIVERSITE DE SAVOIE under license from Dassault Systemes or its subsidiary.



                         The Abaqus Software is a product of:

                           Dassault Systemes Simulia Corp.
                                 Rising Sun Mills
                                 166 Valley Street
                           Providence, RI 02909-2499, USA
 


                   Available for internal use at UNIVERSITE DE SAVOIE. 
                   The Abaqus Online Support System is accessible
                   through the "My Support" section of the SIMULIA
                   Home Page at http://www.simulia.com.

                   Support policies for academic licenses are described
                   on the SIMULIA web site at
                   http://www.simulia.com/academics/academic_support.html.
 
                          On machine lcharleux 
                          you are authorized to run
                          Abaqus/Standard until 25-Feb-2016

                          Your site id is: 200000000053092 


 
                    For assistance or any other information you may
                    obtain contact information for your local office
                    from the world wide web at:

                      http://www.simulia.com/about/locations.html

 
                * * * * * * * * * * * * * * * * * * * * * * * * * * * * * * 
                *                                                         * 
                *                   *****************                     * 
                *                   *  N O T I C E  *                     * 
                *                   *****************                     * 
                *                                                         * 
                *                                                         * 
                *                    Abaqus 6.9-EF1                       * 
                *                                                         * 
                *          BUILD ID: 2009_10_21-15.49.55 96721            * 
                *                                                         * 
                *                                                         * 
                *  Please make sure you are using release 6.9 Extended    * 
                *  Functionality manuals plus the notes accompanying      * 
                *  this release.                                          * 
                *                                                         * 
                *                                                         * 
                *                                                         * 
                *                                                         * 
                *                                                         * 
                *   This program may not be used for commercial purposes  * 
                *           without payment of a commercial fee.          * 
                *                                                         * 
                * * * * * * * * * * * * * * * * * * * * * * * * * * * * * * 


 



     PROCESSING PART, INSTANCE, AND ASSEMBLY INFORMATION
   *******************************************************


     END PROCESSING PART, INSTANCE, AND ASSEMBLY INFORMATION
   ***********************************************************




     OPTIONS BEING PROCESSED
   ***************************


  *Node
  *Element, type=C3D8
  *Nset, nset=ASSEMBLY_ISAMPLE_ALLNODES
  *Nset, nset=ASSEMBLY_ISAMPLE_BOTTOM
  *Nset, nset=ASSEMBLY_ISAMPLE_BOTTOMLEFT
  *Nset, nset=ASSEMBLY_ISAMPLE_BOTTOMRIGHT
  *Nset, nset=ASSEMBLY_ISAMPLE_LEFT
  *Nset, nset=ASSEMBLY_ISAMPLE_RIGHT
  *Nset, nset=ASSEMBLY_ISAMPLE_TOP
  *Nset, nset=ASSEMBLY_ISAMPLE_TOPLEFT
  *Nset, nset=ASSEMBLY_ISAMPLE_TOPRIGHT
  *Elset, elset=ASSEMBLY_ISAMPLE_ALLELEMENTS
  *Elset, elset=ASSEMBLY_ISAMPLE_C3D8_ELEMENTS
  *Elset, elset=ASSEMBLY_ISAMPLE_ELSET1
  *Elset, elset=ASSEMBLY_ISAMPLE_ELSET10
  *Elset, elset=ASSEMBLY_ISAMPLE_ELSET100
  *Elset, elset=ASSEMBLY_ISAMPLE_ELSET1000
  *Elset, elset=ASSEMBLY_ISAMPLE_ELSET101
  *Elset, elset=ASSEMBLY_ISAMPLE_ELSET102
  *Elset, elset=ASSEMBLY_ISAMPLE_ELSET103
  *Elset, elset=ASSEMBLY_ISAMPLE_ELSET104
  *Elset, elset=ASSEMBLY_ISAMPLE_ELSET105
  *Elset, elset=ASSEMBLY_ISAMPLE_ELSET106
  *Elset, elset=ASSEMBLY_ISAMPLE_ELSET107
  *Elset, elset=ASSEMBLY_ISAMPLE_ELSET108
  *Elset, elset=ASSEMBLY_ISAMPLE_ELSET109
  *Elset, elset=ASSEMBLY_ISAMPLE_ELSET11
  *Elset, elset=ASSEMBLY_ISAMPLE_ELSET110
  *Elset, elset=ASSEMBLY_ISAMPLE_ELSET111
  *Elset, elset=ASSEMBLY_ISAMPLE_ELSET112
  *Elset, elset=ASSEMBLY_ISAMPLE_ELSET113
  *Elset, elset=ASSEMBLY_ISAMPLE_ELSET114
  *Elset, elset=ASSEMBLY_ISAMPLE_ELSET115
  *Elset, elset=ASSEMBLY_ISAMPLE_ELSET116
  *Elset, elset=ASSEMBLY_ISAMPLE_ELSET117
  *Elset, elset=ASSEMBLY_ISAMPLE_ELSET118
  *Elset, elset=ASSEMBLY_ISAMPLE_ELSET119
  *Elset, elset=ASSEMBLY_ISAMPLE_ELSET12
  *Elset, elset=ASSEMBLY_ISAMPLE_ELSET120
  *Elset, elset=ASSEMBLY_ISAMPLE_ELSET121
  *Elset, elset=ASSEMBLY_ISAMPLE_ELSET122
  *Elset, elset=ASSEMBLY_ISAMPLE_ELSET123
  *Elset, elset=ASSEMBLY_ISAMPLE_ELSET124
  *Elset, elset=ASSEMBLY_ISAMPLE_ELSET125
  *Elset, elset=ASSEMBLY_ISAMPLE_ELSET126
  *Elset, elset=ASSEMBLY_ISAMPLE_ELSET127
  *Elset, elset=ASSEMBLY_ISAMPLE_ELSET128
  *Elset, elset=ASSEMBLY_ISAMPLE_ELSET129
  *Elset, elset=ASSEMBLY_ISAMPLE_ELSET13
  *Elset, elset=ASSEMBLY_ISAMPLE_ELSET130
  *Elset, elset=ASSEMBLY_ISAMPLE_ELSET131
  *Elset, elset=ASSEMBLY_ISAMPLE_ELSET132
  *Elset, elset=ASSEMBLY_ISAMPLE_ELSET133
  *Elset, elset=ASSEMBLY_ISAMPLE_ELSET134
  *Elset, elset=ASSEMBLY_ISAMPLE_ELSET135
  *Elset, elset=ASSEMBLY_ISAMPLE_ELSET136
  *Elset, elset=ASSEMBLY_ISAMPLE_ELSET137
  *Elset, elset=ASSEMBLY_ISAMPLE_ELSET138
  *Elset, elset=ASSEMBLY_ISAMPLE_ELSET139
  *Elset, elset=ASSEMBLY_ISAMPLE_ELSET14
  *Elset, elset=ASSEMBLY_ISAMPLE_ELSET140
  *Elset, elset=ASSEMBLY_ISAMPLE_ELSET141
  *Elset, elset=ASSEMBLY_ISAMPLE_ELSET142
  *Elset, elset=ASSEMBLY_ISAMPLE_ELSET143
  *Elset, elset=ASSEMBLY_ISAMPLE_ELSET144
  *Elset, elset=ASSEMBLY_ISAMPLE_ELSET145
  *Elset, elset=ASSEMBLY_ISAMPLE_ELSET146
  *Elset, elset=ASSEMBLY_ISAMPLE_ELSET147
  *Elset, elset=ASSEMBLY_ISAMPLE_ELSET148
  *Elset, elset=ASSEMBLY_ISAMPLE_ELSET149
  *Elset, elset=ASSEMBLY_ISAMPLE_ELSET15
  *Elset, elset=ASSEMBLY_ISAMPLE_ELSET150
  *Elset, elset=ASSEMBLY_ISAMPLE_ELSET151
  *Elset, elset=ASSEMBLY_ISAMPLE_ELSET152
  *Elset, elset=ASSEMBLY_ISAMPLE_ELSET153
  *Elset, elset=ASSEMBLY_ISAMPLE_ELSET154
  *Elset, elset=ASSEMBLY_ISAMPLE_ELSET155
  *Elset, elset=ASSEMBLY_ISAMPLE_ELSET156
  *Elset, elset=ASSEMBLY_ISAMPLE_ELSET157
  *Elset, elset=ASSEMBLY_ISAMPLE_ELSET158
  *Elset, elset=ASSEMBLY_ISAMPLE_ELSET159
  *Elset, elset=ASSEMBLY_ISAMPLE_ELSET16
  *Elset, elset=ASSEMBLY_ISAMPLE_ELSET160
  *Elset, elset=ASSEMBLY_ISAMPLE_ELSET161
  *Elset, elset=ASSEMBLY_ISAMPLE_ELSET162
  *Elset, elset=ASSEMBLY_ISAMPLE_ELSET163
  *Elset, elset=ASSEMBLY_ISAMPLE_ELSET164
  *Elset, elset=ASSEMBLY_ISAMPLE_ELSET165
  *Elset, elset=ASSEMBLY_ISAMPLE_ELSET166
  *Elset, elset=ASSEMBLY_ISAMPLE_ELSET167
  *Elset, elset=ASSEMBLY_ISAMPLE_ELSET168
  *Elset, elset=ASSEMBLY_ISAMPLE_ELSET169
  *Elset, elset=ASSEMBLY_ISAMPLE_ELSET17
  *Elset, elset=ASSEMBLY_ISAMPLE_ELSET170
  *Elset, elset=ASSEMBLY_ISAMPLE_ELSET171
  *Elset, elset=ASSEMBLY_ISAMPLE_ELSET172
  *Elset, elset=ASSEMBLY_ISAMPLE_ELSET173
  *Elset, elset=ASSEMBLY_ISAMPLE_ELSET174
  *Elset, elset=ASSEMBLY_ISAMPLE_ELSET175
  *Elset, elset=ASSEMBLY_ISAMPLE_ELSET176
  *Elset, elset=ASSEMBLY_ISAMPLE_ELSET177
  *Elset, elset=ASSEMBLY_ISAMPLE_ELSET178
  *Elset, elset=ASSEMBLY_ISAMPLE_ELSET179
  *Elset, elset=ASSEMBLY_ISAMPLE_ELSET18
  *Elset, elset=ASSEMBLY_ISAMPLE_ELSET180
  *Elset, elset=ASSEMBLY_ISAMPLE_ELSET181
  *Elset, elset=ASSEMBLY_ISAMPLE_ELSET182
  *Elset, elset=ASSEMBLY_ISAMPLE_ELSET183
  *Elset, elset=ASSEMBLY_ISAMPLE_ELSET184
  *Elset, elset=ASSEMBLY_ISAMPLE_ELSET185
  *Elset, elset=ASSEMBLY_ISAMPLE_ELSET186
  *Elset, elset=ASSEMBLY_ISAMPLE_ELSET187
  *Elset, elset=ASSEMBLY_ISAMPLE_ELSET188
  *Elset, elset=ASSEMBLY_ISAMPLE_ELSET189
  *Elset, elset=ASSEMBLY_ISAMPLE_ELSET19
  *Elset, elset=ASSEMBLY_ISAMPLE_ELSET190
  *Elset, elset=ASSEMBLY_ISAMPLE_ELSET191
  *Elset, elset=ASSEMBLY_ISAMPLE_ELSET192
  *Elset, elset=ASSEMBLY_ISAMPLE_ELSET193
  *Elset, elset=ASSEMBLY_ISAMPLE_ELSET194
  *Elset, elset=ASSEMBLY_ISAMPLE_ELSET195
  *Elset, elset=ASSEMBLY_ISAMPLE_ELSET196
  *Elset, elset=ASSEMBLY_ISAMPLE_ELSET197
  *Elset, elset=ASSEMBLY_ISAMPLE_ELSET198
  *Elset, elset=ASSEMBLY_ISAMPLE_ELSET199
  *Elset, elset=ASSEMBLY_ISAMPLE_ELSET2
  *Elset, elset=ASSEMBLY_ISAMPLE_ELSET20
  *Elset, elset=ASSEMBLY_ISAMPLE_ELSET200
  *Elset, elset=ASSEMBLY_ISAMPLE_ELSET201
  *Elset, elset=ASSEMBLY_ISAMPLE_ELSET202
  *Elset, elset=ASSEMBLY_ISAMPLE_ELSET203
  *Elset, elset=ASSEMBLY_ISAMPLE_ELSET204
  *Elset, elset=ASSEMBLY_ISAMPLE_ELSET205
  *Elset, elset=ASSEMBLY_ISAMPLE_ELSET206
  *Elset, elset=ASSEMBLY_ISAMPLE_ELSET207
  *Elset, elset=ASSEMBLY_ISAMPLE_ELSET208
  *Elset, elset=ASSEMBLY_ISAMPLE_ELSET209
  *Elset, elset=ASSEMBLY_ISAMPLE_ELSET21
  *Elset, elset=ASSEMBLY_ISAMPLE_ELSET210
  *Elset, elset=ASSEMBLY_ISAMPLE_ELSET211
  *Elset, elset=ASSEMBLY_ISAMPLE_ELSET212
  *Elset, elset=ASSEMBLY_ISAMPLE_ELSET213
  *Elset, elset=ASSEMBLY_ISAMPLE_ELSET214
  *Elset, elset=ASSEMBLY_ISAMPLE_ELSET215
  *Elset, elset=ASSEMBLY_ISAMPLE_ELSET216
  *Elset, elset=ASSEMBLY_ISAMPLE_ELSET217
  *Elset, elset=ASSEMBLY_ISAMPLE_ELSET218
  *Elset, elset=ASSEMBLY_ISAMPLE_ELSET219
  *Elset, elset=ASSEMBLY_ISAMPLE_ELSET22
  *Elset, elset=ASSEMBLY_ISAMPLE_ELSET220
  *Elset, elset=ASSEMBLY_ISAMPLE_ELSET221
  *Elset, elset=ASSEMBLY_ISAMPLE_ELSET222
  *Elset, elset=ASSEMBLY_ISAMPLE_ELSET223
  *Elset, elset=ASSEMBLY_ISAMPLE_ELSET224
  *Elset, elset=ASSEMBLY_ISAMPLE_ELSET225
  *Elset, elset=ASSEMBLY_ISAMPLE_ELSET226
  *Elset, elset=ASSEMBLY_ISAMPLE_ELSET227
  *Elset, elset=ASSEMBLY_ISAMPLE_ELSET228
  *Elset, elset=ASSEMBLY_ISAMPLE_ELSET229
  *Elset, elset=ASSEMBLY_ISAMPLE_ELSET23
  *Elset, elset=ASSEMBLY_ISAMPLE_ELSET230
  *Elset, elset=ASSEMBLY_ISAMPLE_ELSET231
  *Elset, elset=ASSEMBLY_ISAMPLE_ELSET232
  *Elset, elset=ASSEMBLY_ISAMPLE_ELSET233
  *Elset, elset=ASSEMBLY_ISAMPLE_ELSET234
  *Elset, elset=ASSEMBLY_ISAMPLE_ELSET235
  *Elset, elset=ASSEMBLY_ISAMPLE_ELSET236
  *Elset, elset=ASSEMBLY_ISAMPLE_ELSET237
  *Elset, elset=ASSEMBLY_ISAMPLE_ELSET238
  *Elset, elset=ASSEMBLY_ISAMPLE_ELSET239
  *Elset, elset=ASSEMBLY_ISAMPLE_ELSET24
  *Elset, elset=ASSEMBLY_ISAMPLE_ELSET240
  *Elset, elset=ASSEMBLY_ISAMPLE_ELSET241
  *Elset, elset=ASSEMBLY_ISAMPLE_ELSET242
  *Elset, elset=ASSEMBLY_ISAMPLE_ELSET243
  *Elset, elset=ASSEMBLY_ISAMPLE_ELSET244
  *Elset, elset=ASSEMBLY_ISAMPLE_ELSET245
  *Elset, elset=ASSEMBLY_ISAMPLE_ELSET246
  *Elset, elset=ASSEMBLY_ISAMPLE_ELSET247
  *Elset, elset=ASSEMBLY_ISAMPLE_ELSET248
  *Elset, elset=ASSEMBLY_ISAMPLE_ELSET249
  *Elset, elset=ASSEMBLY_ISAMPLE_ELSET25
  *Elset, elset=ASSEMBLY_ISAMPLE_ELSET250
  *Elset, elset=ASSEMBLY_ISAMPLE_ELSET251
  *Elset, elset=ASSEMBLY_ISAMPLE_ELSET252
  *Elset, elset=ASSEMBLY_ISAMPLE_ELSET253
  *Elset, elset=ASSEMBLY_ISAMPLE_ELSET254
  *Elset, elset=ASSEMBLY_ISAMPLE_ELSET255
  *Elset, elset=ASSEMBLY_ISAMPLE_ELSET256
  *Elset, elset=ASSEMBLY_ISAMPLE_ELSET257
  *Elset, elset=ASSEMBLY_ISAMPLE_ELSET258
  *Elset, elset=ASSEMBLY_ISAMPLE_ELSET259
  *Elset, elset=ASSEMBLY_ISAMPLE_ELSET26
  *Elset, elset=ASSEMBLY_ISAMPLE_ELSET260
  *Elset, elset=ASSEMBLY_ISAMPLE_ELSET261
  *Elset, elset=ASSEMBLY_ISAMPLE_ELSET262
  *Elset, elset=ASSEMBLY_ISAMPLE_ELSET263
  *Elset, elset=ASSEMBLY_ISAMPLE_ELSET264
  *Elset, elset=ASSEMBLY_ISAMPLE_ELSET265
  *Elset, elset=ASSEMBLY_ISAMPLE_ELSET266
  *Elset, elset=ASSEMBLY_ISAMPLE_ELSET267
  *Elset, elset=ASSEMBLY_ISAMPLE_ELSET268
  *Elset, elset=ASSEMBLY_ISAMPLE_ELSET269
  *Elset, elset=ASSEMBLY_ISAMPLE_ELSET27
  *Elset, elset=ASSEMBLY_ISAMPLE_ELSET270
  *Elset, elset=ASSEMBLY_ISAMPLE_ELSET271
  *Elset, elset=ASSEMBLY_ISAMPLE_ELSET272
  *Elset, elset=ASSEMBLY_ISAMPLE_ELSET273
  *Elset, elset=ASSEMBLY_ISAMPLE_ELSET274
  *Elset, elset=ASSEMBLY_ISAMPLE_ELSET275
  *Elset, elset=ASSEMBLY_ISAMPLE_ELSET276
  *Elset, elset=ASSEMBLY_ISAMPLE_ELSET277
  *Elset, elset=ASSEMBLY_ISAMPLE_ELSET278
  *Elset, elset=ASSEMBLY_ISAMPLE_ELSET279
  *Elset, elset=ASSEMBLY_ISAMPLE_ELSET28
  *Elset, elset=ASSEMBLY_ISAMPLE_ELSET280
  *Elset, elset=ASSEMBLY_ISAMPLE_ELSET281
  *Elset, elset=ASSEMBLY_ISAMPLE_ELSET282
  *Elset, elset=ASSEMBLY_ISAMPLE_ELSET283
  *Elset, elset=ASSEMBLY_ISAMPLE_ELSET284
  *Elset, elset=ASSEMBLY_ISAMPLE_ELSET285
  *Elset, elset=ASSEMBLY_ISAMPLE_ELSET286
  *Elset, elset=ASSEMBLY_ISAMPLE_ELSET287
  *Elset, elset=ASSEMBLY_ISAMPLE_ELSET288
  *Elset, elset=ASSEMBLY_ISAMPLE_ELSET289
  *Elset, elset=ASSEMBLY_ISAMPLE_ELSET29
  *Elset, elset=ASSEMBLY_ISAMPLE_ELSET290
  *Elset, elset=ASSEMBLY_ISAMPLE_ELSET291
  *Elset, elset=ASSEMBLY_ISAMPLE_ELSET292
  *Elset, elset=ASSEMBLY_ISAMPLE_ELSET293
  *Elset, elset=ASSEMBLY_ISAMPLE_ELSET294
  *Elset, elset=ASSEMBLY_ISAMPLE_ELSET295
  *Elset, elset=ASSEMBLY_ISAMPLE_ELSET296
  *Elset, elset=ASSEMBLY_ISAMPLE_ELSET297
  *Elset, elset=ASSEMBLY_ISAMPLE_ELSET298
  *Elset, elset=ASSEMBLY_ISAMPLE_ELSET299
  *Elset, elset=ASSEMBLY_ISAMPLE_ELSET3
  *Elset, elset=ASSEMBLY_ISAMPLE_ELSET30
  *Elset, elset=ASSEMBLY_ISAMPLE_ELSET300
  *Elset, elset=ASSEMBLY_ISAMPLE_ELSET301
  *Elset, elset=ASSEMBLY_ISAMPLE_ELSET302
  *Elset, elset=ASSEMBLY_ISAMPLE_ELSET303
  *Elset, elset=ASSEMBLY_ISAMPLE_ELSET304
  *Elset, elset=ASSEMBLY_ISAMPLE_ELSET305
  *Elset, elset=ASSEMBLY_ISAMPLE_ELSET306
  *Elset, elset=ASSEMBLY_ISAMPLE_ELSET307
  *Elset, elset=ASSEMBLY_ISAMPLE_ELSET308
  *Elset, elset=ASSEMBLY_ISAMPLE_ELSET309
  *Elset, elset=ASSEMBLY_ISAMPLE_ELSET31
  *Elset, elset=ASSEMBLY_ISAMPLE_ELSET310
  *Elset, elset=ASSEMBLY_ISAMPLE_ELSET311
  *Elset, elset=ASSEMBLY_ISAMPLE_ELSET312
  *Elset, elset=ASSEMBLY_ISAMPLE_ELSET313
  *Elset, elset=ASSEMBLY_ISAMPLE_ELSET314
  *Elset, elset=ASSEMBLY_ISAMPLE_ELSET315
  *Elset, elset=ASSEMBLY_ISAMPLE_ELSET316
  *Elset, elset=ASSEMBLY_ISAMPLE_ELSET317
  *Elset, elset=ASSEMBLY_ISAMPLE_ELSET318
  *Elset, elset=ASSEMBLY_ISAMPLE_ELSET319
  *Elset, elset=ASSEMBLY_ISAMPLE_ELSET32
  *Elset, elset=ASSEMBLY_ISAMPLE_ELSET320
  *Elset, elset=ASSEMBLY_ISAMPLE_ELSET321
  *Elset, elset=ASSEMBLY_ISAMPLE_ELSET322
  *Elset, elset=ASSEMBLY_ISAMPLE_ELSET323
  *Elset, elset=ASSEMBLY_ISAMPLE_ELSET324
  *Elset, elset=ASSEMBLY_ISAMPLE_ELSET325
  *Elset, elset=ASSEMBLY_ISAMPLE_ELSET326
  *Elset, elset=ASSEMBLY_ISAMPLE_ELSET327
  *Elset, elset=ASSEMBLY_ISAMPLE_ELSET328
  *Elset, elset=ASSEMBLY_ISAMPLE_ELSET329
  *Elset, elset=ASSEMBLY_ISAMPLE_ELSET33
  *Elset, elset=ASSEMBLY_ISAMPLE_ELSET330
  *Elset, elset=ASSEMBLY_ISAMPLE_ELSET331
  *Elset, elset=ASSEMBLY_ISAMPLE_ELSET332
  *Elset, elset=ASSEMBLY_ISAMPLE_ELSET333
  *Elset, elset=ASSEMBLY_ISAMPLE_ELSET334
  *Elset, elset=ASSEMBLY_ISAMPLE_ELSET335
  *Elset, elset=ASSEMBLY_ISAMPLE_ELSET336
  *Elset, elset=ASSEMBLY_ISAMPLE_ELSET337
  *Elset, elset=ASSEMBLY_ISAMPLE_ELSET338
  *Elset, elset=ASSEMBLY_ISAMPLE_ELSET339
  *Elset, elset=ASSEMBLY_ISAMPLE_ELSET34
  *Elset, elset=ASSEMBLY_ISAMPLE_ELSET340
  *Elset, elset=ASSEMBLY_ISAMPLE_ELSET341
  *Elset, elset=ASSEMBLY_ISAMPLE_ELSET342
  *Elset, elset=ASSEMBLY_ISAMPLE_ELSET343
  *Elset, elset=ASSEMBLY_ISAMPLE_ELSET344
  *Elset, elset=ASSEMBLY_ISAMPLE_ELSET345
  *Elset, elset=ASSEMBLY_ISAMPLE_ELSET346
  *Elset, elset=ASSEMBLY_ISAMPLE_ELSET347
  *Elset, elset=ASSEMBLY_ISAMPLE_ELSET348
  *Elset, elset=ASSEMBLY_ISAMPLE_ELSET349
  *Elset, elset=ASSEMBLY_ISAMPLE_ELSET35
  *Elset, elset=ASSEMBLY_ISAMPLE_ELSET350
  *Elset, elset=ASSEMBLY_ISAMPLE_ELSET351
  *Elset, elset=ASSEMBLY_ISAMPLE_ELSET352
  *Elset, elset=ASSEMBLY_ISAMPLE_ELSET353
  *Elset, elset=ASSEMBLY_ISAMPLE_ELSET354
  *Elset, elset=ASSEMBLY_ISAMPLE_ELSET355
  *Elset, elset=ASSEMBLY_ISAMPLE_ELSET356
  *Elset, elset=ASSEMBLY_ISAMPLE_ELSET357
  *Elset, elset=ASSEMBLY_ISAMPLE_ELSET358
  *Elset, elset=ASSEMBLY_ISAMPLE_ELSET359
  *Elset, elset=ASSEMBLY_ISAMPLE_ELSET36
  *Elset, elset=ASSEMBLY_ISAMPLE_ELSET360
  *Elset, elset=ASSEMBLY_ISAMPLE_ELSET361
  *Elset, elset=ASSEMBLY_ISAMPLE_ELSET362
  *Elset, elset=ASSEMBLY_ISAMPLE_ELSET363
  *Elset, elset=ASSEMBLY_ISAMPLE_ELSET364
  *Elset, elset=ASSEMBLY_ISAMPLE_ELSET365
  *Elset, elset=ASSEMBLY_ISAMPLE_ELSET366
  *Elset, elset=ASSEMBLY_ISAMPLE_ELSET367
  *Elset, elset=ASSEMBLY_ISAMPLE_ELSET368
  *Elset, elset=ASSEMBLY_ISAMPLE_ELSET369
  *Elset, elset=ASSEMBLY_ISAMPLE_ELSET37
  *Elset, elset=ASSEMBLY_ISAMPLE_ELSET370
  *Elset, elset=ASSEMBLY_ISAMPLE_ELSET371
  *Elset, elset=ASSEMBLY_ISAMPLE_ELSET372
  *Elset, elset=ASSEMBLY_ISAMPLE_ELSET373
  *Elset, elset=ASSEMBLY_ISAMPLE_ELSET374
  *Elset, elset=ASSEMBLY_ISAMPLE_ELSET375
  *Elset, elset=ASSEMBLY_ISAMPLE_ELSET376
  *Elset, elset=ASSEMBLY_ISAMPLE_ELSET377
  *Elset, elset=ASSEMBLY_ISAMPLE_ELSET378
  *Elset, elset=ASSEMBLY_ISAMPLE_ELSET379
  *Elset, elset=ASSEMBLY_ISAMPLE_ELSET38
  *Elset, elset=ASSEMBLY_ISAMPLE_ELSET380
  *Elset, elset=ASSEMBLY_ISAMPLE_ELSET381
  *Elset, elset=ASSEMBLY_ISAMPLE_ELSET382
  *Elset, elset=ASSEMBLY_ISAMPLE_ELSET383
  *Elset, elset=ASSEMBLY_ISAMPLE_ELSET384
  *Elset, elset=ASSEMBLY_ISAMPLE_ELSET385
  *Elset, elset=ASSEMBLY_ISAMPLE_ELSET386
  *Elset, elset=ASSEMBLY_ISAMPLE_ELSET387
  *Elset, elset=ASSEMBLY_ISAMPLE_ELSET388
  *Elset, elset=ASSEMBLY_ISAMPLE_ELSET389
  *Elset, elset=ASSEMBLY_ISAMPLE_ELSET39
  *Elset, elset=ASSEMBLY_ISAMPLE_ELSET390
  *Elset, elset=ASSEMBLY_ISAMPLE_ELSET391
  *Elset, elset=ASSEMBLY_ISAMPLE_ELSET392
  *Elset, elset=ASSEMBLY_ISAMPLE_ELSET393
  *Elset, elset=ASSEMBLY_ISAMPLE_ELSET394
  *Elset, elset=ASSEMBLY_ISAMPLE_ELSET395
  *Elset, elset=ASSEMBLY_ISAMPLE_ELSET396
  *Elset, elset=ASSEMBLY_ISAMPLE_ELSET397
  *Elset, elset=ASSEMBLY_ISAMPLE_ELSET398
  *Elset, elset=ASSEMBLY_ISAMPLE_ELSET399
  *Elset, elset=ASSEMBLY_ISAMPLE_ELSET4
  *Elset, elset=ASSEMBLY_ISAMPLE_ELSET40
  *Elset, elset=ASSEMBLY_ISAMPLE_ELSET400
  *Elset, elset=ASSEMBLY_ISAMPLE_ELSET401
  *Elset, elset=ASSEMBLY_ISAMPLE_ELSET402
  *Elset, elset=ASSEMBLY_ISAMPLE_ELSET403
  *Elset, elset=ASSEMBLY_ISAMPLE_ELSET404
  *Elset, elset=ASSEMBLY_ISAMPLE_ELSET405
  *Elset, elset=ASSEMBLY_ISAMPLE_ELSET406
  *Elset, elset=ASSEMBLY_ISAMPLE_ELSET407
  *Elset, elset=ASSEMBLY_ISAMPLE_ELSET408
  *Elset, elset=ASSEMBLY_ISAMPLE_ELSET409
  *Elset, elset=ASSEMBLY_ISAMPLE_ELSET41
  *Elset, elset=ASSEMBLY_ISAMPLE_ELSET410
  *Elset, elset=ASSEMBLY_ISAMPLE_ELSET411
  *Elset, elset=ASSEMBLY_ISAMPLE_ELSET412
  *Elset, elset=ASSEMBLY_ISAMPLE_ELSET413
  *Elset, elset=ASSEMBLY_ISAMPLE_ELSET414
  *Elset, elset=ASSEMBLY_ISAMPLE_ELSET415
  *Elset, elset=ASSEMBLY_ISAMPLE_ELSET416
  *Elset, elset=ASSEMBLY_ISAMPLE_ELSET417
  *Elset, elset=ASSEMBLY_ISAMPLE_ELSET418
  *Elset, elset=ASSEMBLY_ISAMPLE_ELSET419
  *Elset, elset=ASSEMBLY_ISAMPLE_ELSET42
  *Elset, elset=ASSEMBLY_ISAMPLE_ELSET420
  *Elset, elset=ASSEMBLY_ISAMPLE_ELSET421
  *Elset, elset=ASSEMBLY_ISAMPLE_ELSET422
  *Elset, elset=ASSEMBLY_ISAMPLE_ELSET423
  *Elset, elset=ASSEMBLY_ISAMPLE_ELSET424
  *Elset, elset=ASSEMBLY_ISAMPLE_ELSET425
  *Elset, elset=ASSEMBLY_ISAMPLE_ELSET426
  *Elset, elset=ASSEMBLY_ISAMPLE_ELSET427
  *Elset, elset=ASSEMBLY_ISAMPLE_ELSET428
  *Elset, elset=ASSEMBLY_ISAMPLE_ELSET429
  *Elset, elset=ASSEMBLY_ISAMPLE_ELSET43
  *Elset, elset=ASSEMBLY_ISAMPLE_ELSET430
  *Elset, elset=ASSEMBLY_ISAMPLE_ELSET431
  *Elset, elset=ASSEMBLY_ISAMPLE_ELSET432
  *Elset, elset=ASSEMBLY_ISAMPLE_ELSET433
  *Elset, elset=ASSEMBLY_ISAMPLE_ELSET434
  *Elset, elset=ASSEMBLY_ISAMPLE_ELSET435
  *Elset, elset=ASSEMBLY_ISAMPLE_ELSET436
  *Elset, elset=ASSEMBLY_ISAMPLE_ELSET437
  *Elset, elset=ASSEMBLY_ISAMPLE_ELSET438
  *Elset, elset=ASSEMBLY_ISAMPLE_ELSET439
  *Elset, elset=ASSEMBLY_ISAMPLE_ELSET44
  *Elset, elset=ASSEMBLY_ISAMPLE_ELSET440
  *Elset, elset=ASSEMBLY_ISAMPLE_ELSET441
  *Elset, elset=ASSEMBLY_ISAMPLE_ELSET442
  *Elset, elset=ASSEMBLY_ISAMPLE_ELSET443
  *Elset, elset=ASSEMBLY_ISAMPLE_ELSET444
  *Elset, elset=ASSEMBLY_ISAMPLE_ELSET445
  *Elset, elset=ASSEMBLY_ISAMPLE_ELSET446
  *Elset, elset=ASSEMBLY_ISAMPLE_ELSET447
  *Elset, elset=ASSEMBLY_ISAMPLE_ELSET448
  *Elset, elset=ASSEMBLY_ISAMPLE_ELSET449
  *Elset, elset=ASSEMBLY_ISAMPLE_ELSET45
  *Elset, elset=ASSEMBLY_ISAMPLE_ELSET450
  *Elset, elset=ASSEMBLY_ISAMPLE_ELSET451
  *Elset, elset=ASSEMBLY_ISAMPLE_ELSET452
  *Elset, elset=ASSEMBLY_ISAMPLE_ELSET453
  *Elset, elset=ASSEMBLY_ISAMPLE_ELSET454
  *Elset, elset=ASSEMBLY_ISAMPLE_ELSET455
  *Elset, elset=ASSEMBLY_ISAMPLE_ELSET456
  *Elset, elset=ASSEMBLY_ISAMPLE_ELSET457
  *Elset, elset=ASSEMBLY_ISAMPLE_ELSET458
  *Elset, elset=ASSEMBLY_ISAMPLE_ELSET459
  *Elset, elset=ASSEMBLY_ISAMPLE_ELSET46
  *Elset, elset=ASSEMBLY_ISAMPLE_ELSET460
  *Elset, elset=ASSEMBLY_ISAMPLE_ELSET461
  *Elset, elset=ASSEMBLY_ISAMPLE_ELSET462
  *Elset, elset=ASSEMBLY_ISAMPLE_ELSET463
  *Elset, elset=ASSEMBLY_ISAMPLE_ELSET464
  *Elset, elset=ASSEMBLY_ISAMPLE_ELSET465
  *Elset, elset=ASSEMBLY_ISAMPLE_ELSET466
  *Elset, elset=ASSEMBLY_ISAMPLE_ELSET467
  *Elset, elset=ASSEMBLY_ISAMPLE_ELSET468
  *Elset, elset=ASSEMBLY_ISAMPLE_ELSET469
  *Elset, elset=ASSEMBLY_ISAMPLE_ELSET47
  *Elset, elset=ASSEMBLY_ISAMPLE_ELSET470
  *Elset, elset=ASSEMBLY_ISAMPLE_ELSET471
  *Elset, elset=ASSEMBLY_ISAMPLE_ELSET472
  *Elset, elset=ASSEMBLY_ISAMPLE_ELSET473
  *Elset, elset=ASSEMBLY_ISAMPLE_ELSET474
  *Elset, elset=ASSEMBLY_ISAMPLE_ELSET475
  *Elset, elset=ASSEMBLY_ISAMPLE_ELSET476
  *Elset, elset=ASSEMBLY_ISAMPLE_ELSET477
  *Elset, elset=ASSEMBLY_ISAMPLE_ELSET478
  *Elset, elset=ASSEMBLY_ISAMPLE_ELSET479
  *Elset, elset=ASSEMBLY_ISAMPLE_ELSET48
  *Elset, elset=ASSEMBLY_ISAMPLE_ELSET480
  *Elset, elset=ASSEMBLY_ISAMPLE_ELSET481
  *Elset, elset=ASSEMBLY_ISAMPLE_ELSET482
  *Elset, elset=ASSEMBLY_ISAMPLE_ELSET483
  *Elset, elset=ASSEMBLY_ISAMPLE_ELSET484
  *Elset, elset=ASSEMBLY_ISAMPLE_ELSET485
  *Elset, elset=ASSEMBLY_ISAMPLE_ELSET486
  *Elset, elset=ASSEMBLY_ISAMPLE_ELSET487
  *Elset, elset=ASSEMBLY_ISAMPLE_ELSET488
  *Elset, elset=ASSEMBLY_ISAMPLE_ELSET489
  *Elset, elset=ASSEMBLY_ISAMPLE_ELSET49
  *Elset, elset=ASSEMBLY_ISAMPLE_ELSET490
  *Elset, elset=ASSEMBLY_ISAMPLE_ELSET491
  *Elset, elset=ASSEMBLY_ISAMPLE_ELSET492
  *Elset, elset=ASSEMBLY_ISAMPLE_ELSET493
  *Elset, elset=ASSEMBLY_ISAMPLE_ELSET494
  *Elset, elset=ASSEMBLY_ISAMPLE_ELSET495
  *Elset, elset=ASSEMBLY_ISAMPLE_ELSET496
  *Elset, elset=ASSEMBLY_ISAMPLE_ELSET497
  *Elset, elset=ASSEMBLY_ISAMPLE_ELSET498
  *Elset, elset=ASSEMBLY_ISAMPLE_ELSET499
  *Elset, elset=ASSEMBLY_ISAMPLE_ELSET5
  *Elset, elset=ASSEMBLY_ISAMPLE_ELSET50
  *Elset, elset=ASSEMBLY_ISAMPLE_ELSET500
  *Elset, elset=ASSEMBLY_ISAMPLE_ELSET501
  *Elset, elset=ASSEMBLY_ISAMPLE_ELSET502
  *Elset, elset=ASSEMBLY_ISAMPLE_ELSET503
  *Elset, elset=ASSEMBLY_ISAMPLE_ELSET504
  *Elset, elset=ASSEMBLY_ISAMPLE_ELSET505
  *Elset, elset=ASSEMBLY_ISAMPLE_ELSET506
  *Elset, elset=ASSEMBLY_ISAMPLE_ELSET507
  *Elset, elset=ASSEMBLY_ISAMPLE_ELSET508
  *Elset, elset=ASSEMBLY_ISAMPLE_ELSET509
  *Elset, elset=ASSEMBLY_ISAMPLE_ELSET51
  *Elset, elset=ASSEMBLY_ISAMPLE_ELSET510
  *Elset, elset=ASSEMBLY_ISAMPLE_ELSET511
  *Elset, elset=ASSEMBLY_ISAMPLE_ELSET512
  *Elset, elset=ASSEMBLY_ISAMPLE_ELSET513
  *Elset, elset=ASSEMBLY_ISAMPLE_ELSET514
  *Elset, elset=ASSEMBLY_ISAMPLE_ELSET515
  *Elset, elset=ASSEMBLY_ISAMPLE_ELSET516
  *Elset, elset=ASSEMBLY_ISAMPLE_ELSET517
  *Elset, elset=ASSEMBLY_ISAMPLE_ELSET518
  *Elset, elset=ASSEMBLY_ISAMPLE_ELSET519
  *Elset, elset=ASSEMBLY_ISAMPLE_ELSET52
  *Elset, elset=ASSEMBLY_ISAMPLE_ELSET520
  *Elset, elset=ASSEMBLY_ISAMPLE_ELSET521
  *Elset, elset=ASSEMBLY_ISAMPLE_ELSET522
  *Elset, elset=ASSEMBLY_ISAMPLE_ELSET523
  *Elset, elset=ASSEMBLY_ISAMPLE_ELSET524
  *Elset, elset=ASSEMBLY_ISAMPLE_ELSET525
  *Elset, elset=ASSEMBLY_ISAMPLE_ELSET526
  *Elset, elset=ASSEMBLY_ISAMPLE_ELSET527
  *Elset, elset=ASSEMBLY_ISAMPLE_ELSET528
  *Elset, elset=ASSEMBLY_ISAMPLE_ELSET529
  *Elset, elset=ASSEMBLY_ISAMPLE_ELSET53
  *Elset, elset=ASSEMBLY_ISAMPLE_ELSET530
  *Elset, elset=ASSEMBLY_ISAMPLE_ELSET531
  *Elset, elset=ASSEMBLY_ISAMPLE_ELSET532
  *Elset, elset=ASSEMBLY_ISAMPLE_ELSET533
  *Elset, elset=ASSEMBLY_ISAMPLE_ELSET534
  *Elset, elset=ASSEMBLY_ISAMPLE_ELSET535
  *Elset, elset=ASSEMBLY_ISAMPLE_ELSET536
  *Elset, elset=ASSEMBLY_ISAMPLE_ELSET537
  *Elset, elset=ASSEMBLY_ISAMPLE_ELSET538
  *Elset, elset=ASSEMBLY_ISAMPLE_ELSET539
  *Elset, elset=ASSEMBLY_ISAMPLE_ELSET54
  *Elset, elset=ASSEMBLY_ISAMPLE_ELSET540
  *Elset, elset=ASSEMBLY_ISAMPLE_ELSET541
  *Elset, elset=ASSEMBLY_ISAMPLE_ELSET542
  *Elset, elset=ASSEMBLY_ISAMPLE_ELSET543
  *Elset, elset=ASSEMBLY_ISAMPLE_ELSET544
  *Elset, elset=ASSEMBLY_ISAMPLE_ELSET545
  *Elset, elset=ASSEMBLY_ISAMPLE_ELSET546
  *Elset, elset=ASSEMBLY_ISAMPLE_ELSET547
  *Elset, elset=ASSEMBLY_ISAMPLE_ELSET548
  *Elset, elset=ASSEMBLY_ISAMPLE_ELSET549
  *Elset, elset=ASSEMBLY_ISAMPLE_ELSET55
  *Elset, elset=ASSEMBLY_ISAMPLE_ELSET550
  *Elset, elset=ASSEMBLY_ISAMPLE_ELSET551
  *Elset, elset=ASSEMBLY_ISAMPLE_ELSET552
  *Elset, elset=ASSEMBLY_ISAMPLE_ELSET553
  *Elset, elset=ASSEMBLY_ISAMPLE_ELSET554
  *Elset, elset=ASSEMBLY_ISAMPLE_ELSET555
  *Elset, elset=ASSEMBLY_ISAMPLE_ELSET556
  *Elset, elset=ASSEMBLY_ISAMPLE_ELSET557
  *Elset, elset=ASSEMBLY_ISAMPLE_ELSET558
  *Elset, elset=ASSEMBLY_ISAMPLE_ELSET559
  *Elset, elset=ASSEMBLY_ISAMPLE_ELSET56
  *Elset, elset=ASSEMBLY_ISAMPLE_ELSET560
  *Elset, elset=ASSEMBLY_ISAMPLE_ELSET561
  *Elset, elset=ASSEMBLY_ISAMPLE_ELSET562
  *Elset, elset=ASSEMBLY_ISAMPLE_ELSET563
  *Elset, elset=ASSEMBLY_ISAMPLE_ELSET564
  *Elset, elset=ASSEMBLY_ISAMPLE_ELSET565
  *Elset, elset=ASSEMBLY_ISAMPLE_ELSET566
  *Elset, elset=ASSEMBLY_ISAMPLE_ELSET567
  *Elset, elset=ASSEMBLY_ISAMPLE_ELSET568
  *Elset, elset=ASSEMBLY_ISAMPLE_ELSET569
  *Elset, elset=ASSEMBLY_ISAMPLE_ELSET57
  *Elset, elset=ASSEMBLY_ISAMPLE_ELSET570
  *Elset, elset=ASSEMBLY_ISAMPLE_ELSET571
  *Elset, elset=ASSEMBLY_ISAMPLE_ELSET572
  *Elset, elset=ASSEMBLY_ISAMPLE_ELSET573
  *Elset, elset=ASSEMBLY_ISAMPLE_ELSET574
  *Elset, elset=ASSEMBLY_ISAMPLE_ELSET575
  *Elset, elset=ASSEMBLY_ISAMPLE_ELSET576
  *Elset, elset=ASSEMBLY_ISAMPLE_ELSET577
  *Elset, elset=ASSEMBLY_ISAMPLE_ELSET578
  *Elset, elset=ASSEMBLY_ISAMPLE_ELSET579
  *Elset, elset=ASSEMBLY_ISAMPLE_ELSET58
  *Elset, elset=ASSEMBLY_ISAMPLE_ELSET580
  *Elset, elset=ASSEMBLY_ISAMPLE_ELSET581
  *Elset, elset=ASSEMBLY_ISAMPLE_ELSET582
  *Elset, elset=ASSEMBLY_ISAMPLE_ELSET583
  *Elset, elset=ASSEMBLY_ISAMPLE_ELSET584
  *Elset, elset=ASSEMBLY_ISAMPLE_ELSET585
  *Elset, elset=ASSEMBLY_ISAMPLE_ELSET586
  *Elset, elset=ASSEMBLY_ISAMPLE_ELSET587
  *Elset, elset=ASSEMBLY_ISAMPLE_ELSET588
  *Elset, elset=ASSEMBLY_ISAMPLE_ELSET589
  *Elset, elset=ASSEMBLY_ISAMPLE_ELSET59
  *Elset, elset=ASSEMBLY_ISAMPLE_ELSET590
  *Elset, elset=ASSEMBLY_ISAMPLE_ELSET591
  *Elset, elset=ASSEMBLY_ISAMPLE_ELSET592
  *Elset, elset=ASSEMBLY_ISAMPLE_ELSET593
  *Elset, elset=ASSEMBLY_ISAMPLE_ELSET594
  *Elset, elset=ASSEMBLY_ISAMPLE_ELSET595
  *Elset, elset=ASSEMBLY_ISAMPLE_ELSET596
  *Elset, elset=ASSEMBLY_ISAMPLE_ELSET597
  *Elset, elset=ASSEMBLY_ISAMPLE_ELSET598
  *Elset, elset=ASSEMBLY_ISAMPLE_ELSET599
  *Elset, elset=ASSEMBLY_ISAMPLE_ELSET6
  *Elset, elset=ASSEMBLY_ISAMPLE_ELSET60
  *Elset, elset=ASSEMBLY_ISAMPLE_ELSET600
  *Elset, elset=ASSEMBLY_ISAMPLE_ELSET601
  *Elset, elset=ASSEMBLY_ISAMPLE_ELSET602
  *Elset, elset=ASSEMBLY_ISAMPLE_ELSET603
  *Elset, elset=ASSEMBLY_ISAMPLE_ELSET604
  *Elset, elset=ASSEMBLY_ISAMPLE_ELSET605
  *Elset, elset=ASSEMBLY_ISAMPLE_ELSET606
  *Elset, elset=ASSEMBLY_ISAMPLE_ELSET607
  *Elset, elset=ASSEMBLY_ISAMPLE_ELSET608
  *Elset, elset=ASSEMBLY_ISAMPLE_ELSET609
  *Elset, elset=ASSEMBLY_ISAMPLE_ELSET61
  *Elset, elset=ASSEMBLY_ISAMPLE_ELSET610
  *Elset, elset=ASSEMBLY_ISAMPLE_ELSET611
  *Elset, elset=ASSEMBLY_ISAMPLE_ELSET612
  *Elset, elset=ASSEMBLY_ISAMPLE_ELSET613
  *Elset, elset=ASSEMBLY_ISAMPLE_ELSET614
  *Elset, elset=ASSEMBLY_ISAMPLE_ELSET615
  *Elset, elset=ASSEMBLY_ISAMPLE_ELSET616
  *Elset, elset=ASSEMBLY_ISAMPLE_ELSET617
  *Elset, elset=ASSEMBLY_ISAMPLE_ELSET618
  *Elset, elset=ASSEMBLY_ISAMPLE_ELSET619
  *Elset, elset=ASSEMBLY_ISAMPLE_ELSET62
  *Elset, elset=ASSEMBLY_ISAMPLE_ELSET620
  *Elset, elset=ASSEMBLY_ISAMPLE_ELSET621
  *Elset, elset=ASSEMBLY_ISAMPLE_ELSET622
  *Elset, elset=ASSEMBLY_ISAMPLE_ELSET623
  *Elset, elset=ASSEMBLY_ISAMPLE_ELSET624
  *Elset, elset=ASSEMBLY_ISAMPLE_ELSET625
  *Elset, elset=ASSEMBLY_ISAMPLE_ELSET626
  *Elset, elset=ASSEMBLY_ISAMPLE_ELSET627
  *Elset, elset=ASSEMBLY_ISAMPLE_ELSET628
  *Elset, elset=ASSEMBLY_ISAMPLE_ELSET629
  *Elset, elset=ASSEMBLY_ISAMPLE_ELSET63
  *Elset, elset=ASSEMBLY_ISAMPLE_ELSET630
  *Elset, elset=ASSEMBLY_ISAMPLE_ELSET631
  *Elset, elset=ASSEMBLY_ISAMPLE_ELSET632
  *Elset, elset=ASSEMBLY_ISAMPLE_ELSET633
  *Elset, elset=ASSEMBLY_ISAMPLE_ELSET634
  *Elset, elset=ASSEMBLY_ISAMPLE_ELSET635
  *Elset, elset=ASSEMBLY_ISAMPLE_ELSET636
  *Elset, elset=ASSEMBLY_ISAMPLE_ELSET637
  *Elset, elset=ASSEMBLY_ISAMPLE_ELSET638
  *Elset, elset=ASSEMBLY_ISAMPLE_ELSET639
  *Elset, elset=ASSEMBLY_ISAMPLE_ELSET64
  *Elset, elset=ASSEMBLY_ISAMPLE_ELSET640
  *Elset, elset=ASSEMBLY_ISAMPLE_ELSET641
  *Elset, elset=ASSEMBLY_ISAMPLE_ELSET642
  *Elset, elset=ASSEMBLY_ISAMPLE_ELSET643
  *Elset, elset=ASSEMBLY_ISAMPLE_ELSET644
  *Elset, elset=ASSEMBLY_ISAMPLE_ELSET645
  *Elset, elset=ASSEMBLY_ISAMPLE_ELSET646
  *Elset, elset=ASSEMBLY_ISAMPLE_ELSET647
  *Elset, elset=ASSEMBLY_ISAMPLE_ELSET648
  *Elset, elset=ASSEMBLY_ISAMPLE_ELSET649
  *Elset, elset=ASSEMBLY_ISAMPLE_ELSET65
  *Elset, elset=ASSEMBLY_ISAMPLE_ELSET650
  *Elset, elset=ASSEMBLY_ISAMPLE_ELSET651
  *Elset, elset=ASSEMBLY_ISAMPLE_ELSET652
  *Elset, elset=ASSEMBLY_ISAMPLE_ELSET653
  *Elset, elset=ASSEMBLY_ISAMPLE_ELSET654
  *Elset, elset=ASSEMBLY_ISAMPLE_ELSET655
  *Elset, elset=ASSEMBLY_ISAMPLE_ELSET656
  *Elset, elset=ASSEMBLY_ISAMPLE_ELSET657
  *Elset, elset=ASSEMBLY_ISAMPLE_ELSET658
  *Elset, elset=ASSEMBLY_ISAMPLE_ELSET659
  *Elset, elset=ASSEMBLY_ISAMPLE_ELSET66
  *Elset, elset=ASSEMBLY_ISAMPLE_ELSET660
  *Elset, elset=ASSEMBLY_ISAMPLE_ELSET661
  *Elset, elset=ASSEMBLY_ISAMPLE_ELSET662
  *Elset, elset=ASSEMBLY_ISAMPLE_ELSET663
  *Elset, elset=ASSEMBLY_ISAMPLE_ELSET664
  *Elset, elset=ASSEMBLY_ISAMPLE_ELSET665
  *Elset, elset=ASSEMBLY_ISAMPLE_ELSET666
  *Elset, elset=ASSEMBLY_ISAMPLE_ELSET667
  *Elset, elset=ASSEMBLY_ISAMPLE_ELSET668
  *Elset, elset=ASSEMBLY_ISAMPLE_ELSET669
  *Elset, elset=ASSEMBLY_ISAMPLE_ELSET67
  *Elset, elset=ASSEMBLY_ISAMPLE_ELSET670
  *Elset, elset=ASSEMBLY_ISAMPLE_ELSET671
  *Elset, elset=ASSEMBLY_ISAMPLE_ELSET672
  *Elset, elset=ASSEMBLY_ISAMPLE_ELSET673
  *Elset, elset=ASSEMBLY_ISAMPLE_ELSET674
  *Elset, elset=ASSEMBLY_ISAMPLE_ELSET675
  *Elset, elset=ASSEMBLY_ISAMPLE_ELSET676
  *Elset, elset=ASSEMBLY_ISAMPLE_ELSET677
  *Elset, elset=ASSEMBLY_ISAMPLE_ELSET678
  *Elset, elset=ASSEMBLY_ISAMPLE_ELSET679
  *Elset, elset=ASSEMBLY_ISAMPLE_ELSET68
  *Elset, elset=ASSEMBLY_ISAMPLE_ELSET680
  *Elset, elset=ASSEMBLY_ISAMPLE_ELSET681
  *Elset, elset=ASSEMBLY_ISAMPLE_ELSET682
  *Elset, elset=ASSEMBLY_ISAMPLE_ELSET683
  *Elset, elset=ASSEMBLY_ISAMPLE_ELSET684
  *Elset, elset=ASSEMBLY_ISAMPLE_ELSET685
  *Elset, elset=ASSEMBLY_ISAMPLE_ELSET686
  *Elset, elset=ASSEMBLY_ISAMPLE_ELSET687
  *Elset, elset=ASSEMBLY_ISAMPLE_ELSET688
  *Elset, elset=ASSEMBLY_ISAMPLE_ELSET689
  *Elset, elset=ASSEMBLY_ISAMPLE_ELSET69
  *Elset, elset=ASSEMBLY_ISAMPLE_ELSET690
  *Elset, elset=ASSEMBLY_ISAMPLE_ELSET691
  *Elset, elset=ASSEMBLY_ISAMPLE_ELSET692
  *Elset, elset=ASSEMBLY_ISAMPLE_ELSET693
  *Elset, elset=ASSEMBLY_ISAMPLE_ELSET694
  *Elset, elset=ASSEMBLY_ISAMPLE_ELSET695
  *Elset, elset=ASSEMBLY_ISAMPLE_ELSET696
  *Elset, elset=ASSEMBLY_ISAMPLE_ELSET697
  *Elset, elset=ASSEMBLY_ISAMPLE_ELSET698
  *Elset, elset=ASSEMBLY_ISAMPLE_ELSET699
  *Elset, elset=ASSEMBLY_ISAMPLE_ELSET7
  *Elset, elset=ASSEMBLY_ISAMPLE_ELSET70
  *Elset, elset=ASSEMBLY_ISAMPLE_ELSET700
  *Elset, elset=ASSEMBLY_ISAMPLE_ELSET701
  *Elset, elset=ASSEMBLY_ISAMPLE_ELSET702
  *Elset, elset=ASSEMBLY_ISAMPLE_ELSET703
  *Elset, elset=ASSEMBLY_ISAMPLE_ELSET704
  *Elset, elset=ASSEMBLY_ISAMPLE_ELSET705
  *Elset, elset=ASSEMBLY_ISAMPLE_ELSET706
  *Elset, elset=ASSEMBLY_ISAMPLE_ELSET707
  *Elset, elset=ASSEMBLY_ISAMPLE_ELSET708
  *Elset, elset=ASSEMBLY_ISAMPLE_ELSET709
  *Elset, elset=ASSEMBLY_ISAMPLE_ELSET71
  *Elset, elset=ASSEMBLY_ISAMPLE_ELSET710
  *Elset, elset=ASSEMBLY_ISAMPLE_ELSET711
  *Elset, elset=ASSEMBLY_ISAMPLE_ELSET712
  *Elset, elset=ASSEMBLY_ISAMPLE_ELSET713
  *Elset, elset=ASSEMBLY_ISAMPLE_ELSET714
  *Elset, elset=ASSEMBLY_ISAMPLE_ELSET715
  *Elset, elset=ASSEMBLY_ISAMPLE_ELSET716
  *Elset, elset=ASSEMBLY_ISAMPLE_ELSET717
  *Elset, elset=ASSEMBLY_ISAMPLE_ELSET718
  *Elset, elset=ASSEMBLY_ISAMPLE_ELSET719
  *Elset, elset=ASSEMBLY_ISAMPLE_ELSET72
  *Elset, elset=ASSEMBLY_ISAMPLE_ELSET720
  *Elset, elset=ASSEMBLY_ISAMPLE_ELSET721
  *Elset, elset=ASSEMBLY_ISAMPLE_ELSET722
  *Elset, elset=ASSEMBLY_ISAMPLE_ELSET723
  *Elset, elset=ASSEMBLY_ISAMPLE_ELSET724
  *Elset, elset=ASSEMBLY_ISAMPLE_ELSET725
  *Elset, elset=ASSEMBLY_ISAMPLE_ELSET726
  *Elset, elset=ASSEMBLY_ISAMPLE_ELSET727
  *Elset, elset=ASSEMBLY_ISAMPLE_ELSET728
  *Elset, elset=ASSEMBLY_ISAMPLE_ELSET729
  *Elset, elset=ASSEMBLY_ISAMPLE_ELSET73
  *Elset, elset=ASSEMBLY_ISAMPLE_ELSET730
  *Elset, elset=ASSEMBLY_ISAMPLE_ELSET731
  *Elset, elset=ASSEMBLY_ISAMPLE_ELSET732
  *Elset, elset=ASSEMBLY_ISAMPLE_ELSET733
  *Elset, elset=ASSEMBLY_ISAMPLE_ELSET734
  *Elset, elset=ASSEMBLY_ISAMPLE_ELSET735
  *Elset, elset=ASSEMBLY_ISAMPLE_ELSET736
  *Elset, elset=ASSEMBLY_ISAMPLE_ELSET737
  *Elset, elset=ASSEMBLY_ISAMPLE_ELSET738
  *Elset, elset=ASSEMBLY_ISAMPLE_ELSET739
  *Elset, elset=ASSEMBLY_ISAMPLE_ELSET74
  *Elset, elset=ASSEMBLY_ISAMPLE_ELSET740
  *Elset, elset=ASSEMBLY_ISAMPLE_ELSET741
  *Elset, elset=ASSEMBLY_ISAMPLE_ELSET742
  *Elset, elset=ASSEMBLY_ISAMPLE_ELSET743
  *Elset, elset=ASSEMBLY_ISAMPLE_ELSET744
  *Elset, elset=ASSEMBLY_ISAMPLE_ELSET745
  *Elset, elset=ASSEMBLY_ISAMPLE_ELSET746
  *Elset, elset=ASSEMBLY_ISAMPLE_ELSET747
  *Elset, elset=ASSEMBLY_ISAMPLE_ELSET748
  *Elset, elset=ASSEMBLY_ISAMPLE_ELSET749
  *Elset, elset=ASSEMBLY_ISAMPLE_ELSET75
  *Elset, elset=ASSEMBLY_ISAMPLE_ELSET750
  *Elset, elset=ASSEMBLY_ISAMPLE_ELSET751
  *Elset, elset=ASSEMBLY_ISAMPLE_ELSET752
  *Elset, elset=ASSEMBLY_ISAMPLE_ELSET753
  *Elset, elset=ASSEMBLY_ISAMPLE_ELSET754
  *Elset, elset=ASSEMBLY_ISAMPLE_ELSET755
  *Elset, elset=ASSEMBLY_ISAMPLE_ELSET756
  *Elset, elset=ASSEMBLY_ISAMPLE_ELSET757
  *Elset, elset=ASSEMBLY_ISAMPLE_ELSET758
  *Elset, elset=ASSEMBLY_ISAMPLE_ELSET759
  *Elset, elset=ASSEMBLY_ISAMPLE_ELSET76
  *Elset, elset=ASSEMBLY_ISAMPLE_ELSET760
  *Elset, elset=ASSEMBLY_ISAMPLE_ELSET761
  *Elset, elset=ASSEMBLY_ISAMPLE_ELSET762
  *Elset, elset=ASSEMBLY_ISAMPLE_ELSET763
  *Elset, elset=ASSEMBLY_ISAMPLE_ELSET764
  *Elset, elset=ASSEMBLY_ISAMPLE_ELSET765
  *Elset, elset=ASSEMBLY_ISAMPLE_ELSET766
  *Elset, elset=ASSEMBLY_ISAMPLE_ELSET767
  *Elset, elset=ASSEMBLY_ISAMPLE_ELSET768
  *Elset, elset=ASSEMBLY_ISAMPLE_ELSET769
  *Elset, elset=ASSEMBLY_ISAMPLE_ELSET77
  *Elset, elset=ASSEMBLY_ISAMPLE_ELSET770
  *Elset, elset=ASSEMBLY_ISAMPLE_ELSET771
  *Elset, elset=ASSEMBLY_ISAMPLE_ELSET772
  *Elset, elset=ASSEMBLY_ISAMPLE_ELSET773
  *Elset, elset=ASSEMBLY_ISAMPLE_ELSET774
  *Elset, elset=ASSEMBLY_ISAMPLE_ELSET775
  *Elset, elset=ASSEMBLY_ISAMPLE_ELSET776
  *Elset, elset=ASSEMBLY_ISAMPLE_ELSET777
  *Elset, elset=ASSEMBLY_ISAMPLE_ELSET778
  *Elset, elset=ASSEMBLY_ISAMPLE_ELSET779
  *Elset, elset=ASSEMBLY_ISAMPLE_ELSET78
  *Elset, elset=ASSEMBLY_ISAMPLE_ELSET780
  *Elset, elset=ASSEMBLY_ISAMPLE_ELSET781
  *Elset, elset=ASSEMBLY_ISAMPLE_ELSET782
  *Elset, elset=ASSEMBLY_ISAMPLE_ELSET783
  *Elset, elset=ASSEMBLY_ISAMPLE_ELSET784
  *Elset, elset=ASSEMBLY_ISAMPLE_ELSET785
  *Elset, elset=ASSEMBLY_ISAMPLE_ELSET786
  *Elset, elset=ASSEMBLY_ISAMPLE_ELSET787
  *Elset, elset=ASSEMBLY_ISAMPLE_ELSET788
  *Elset, elset=ASSEMBLY_ISAMPLE_ELSET789
  *Elset, elset=ASSEMBLY_ISAMPLE_ELSET79
  *Elset, elset=ASSEMBLY_ISAMPLE_ELSET790
  *Elset, elset=ASSEMBLY_ISAMPLE_ELSET791
  *Elset, elset=ASSEMBLY_ISAMPLE_ELSET792
  *Elset, elset=ASSEMBLY_ISAMPLE_ELSET793
  *Elset, elset=ASSEMBLY_ISAMPLE_ELSET794
  *Elset, elset=ASSEMBLY_ISAMPLE_ELSET795
  *Elset, elset=ASSEMBLY_ISAMPLE_ELSET796
  *Elset, elset=ASSEMBLY_ISAMPLE_ELSET797
  *Elset, elset=ASSEMBLY_ISAMPLE_ELSET798
  *Elset, elset=ASSEMBLY_ISAMPLE_ELSET799
  *Elset, elset=ASSEMBLY_ISAMPLE_ELSET8
  *Elset, elset=ASSEMBLY_ISAMPLE_ELSET80
  *Elset, elset=ASSEMBLY_ISAMPLE_ELSET800
  *Elset, elset=ASSEMBLY_ISAMPLE_ELSET801
  *Elset, elset=ASSEMBLY_ISAMPLE_ELSET802
  *Elset, elset=ASSEMBLY_ISAMPLE_ELSET803
  *Elset, elset=ASSEMBLY_ISAMPLE_ELSET804
  *Elset, elset=ASSEMBLY_ISAMPLE_ELSET805
  *Elset, elset=ASSEMBLY_ISAMPLE_ELSET806
  *Elset, elset=ASSEMBLY_ISAMPLE_ELSET807
  *Elset, elset=ASSEMBLY_ISAMPLE_ELSET808
  *Elset, elset=ASSEMBLY_ISAMPLE_ELSET809
  *Elset, elset=ASSEMBLY_ISAMPLE_ELSET81
  *Elset, elset=ASSEMBLY_ISAMPLE_ELSET810
  *Elset, elset=ASSEMBLY_ISAMPLE_ELSET811
  *Elset, elset=ASSEMBLY_ISAMPLE_ELSET812
  *Elset, elset=ASSEMBLY_ISAMPLE_ELSET813
  *Elset, elset=ASSEMBLY_ISAMPLE_ELSET814
  *Elset, elset=ASSEMBLY_ISAMPLE_ELSET815
  *Elset, elset=ASSEMBLY_ISAMPLE_ELSET816
  *Elset, elset=ASSEMBLY_ISAMPLE_ELSET817
  *Elset, elset=ASSEMBLY_ISAMPLE_ELSET818
  *Elset, elset=ASSEMBLY_ISAMPLE_ELSET819
  *Elset, elset=ASSEMBLY_ISAMPLE_ELSET82
  *Elset, elset=ASSEMBLY_ISAMPLE_ELSET820
  *Elset, elset=ASSEMBLY_ISAMPLE_ELSET821
  *Elset, elset=ASSEMBLY_ISAMPLE_ELSET822
  *Elset, elset=ASSEMBLY_ISAMPLE_ELSET823
  *Elset, elset=ASSEMBLY_ISAMPLE_ELSET824
  *Elset, elset=ASSEMBLY_ISAMPLE_ELSET825
  *Elset, elset=ASSEMBLY_ISAMPLE_ELSET826
  *Elset, elset=ASSEMBLY_ISAMPLE_ELSET827
  *Elset, elset=ASSEMBLY_ISAMPLE_ELSET828
  *Elset, elset=ASSEMBLY_ISAMPLE_ELSET829
  *Elset, elset=ASSEMBLY_ISAMPLE_ELSET83
  *Elset, elset=ASSEMBLY_ISAMPLE_ELSET830
  *Elset, elset=ASSEMBLY_ISAMPLE_ELSET831
  *Elset, elset=ASSEMBLY_ISAMPLE_ELSET832
  *Elset, elset=ASSEMBLY_ISAMPLE_ELSET833
  *Elset, elset=ASSEMBLY_ISAMPLE_ELSET834
  *Elset, elset=ASSEMBLY_ISAMPLE_ELSET835
  *Elset, elset=ASSEMBLY_ISAMPLE_ELSET836
  *Elset, elset=ASSEMBLY_ISAMPLE_ELSET837
  *Elset, elset=ASSEMBLY_ISAMPLE_ELSET838
  *Elset, elset=ASSEMBLY_ISAMPLE_ELSET839
  *Elset, elset=ASSEMBLY_ISAMPLE_ELSET84
  *Elset, elset=ASSEMBLY_ISAMPLE_ELSET840
  *Elset, elset=ASSEMBLY_ISAMPLE_ELSET841
  *Elset, elset=ASSEMBLY_ISAMPLE_ELSET842
  *Elset, elset=ASSEMBLY_ISAMPLE_ELSET843
  *Elset, elset=ASSEMBLY_ISAMPLE_ELSET844
  *Elset, elset=ASSEMBLY_ISAMPLE_ELSET845
  *Elset, elset=ASSEMBLY_ISAMPLE_ELSET846
  *Elset, elset=ASSEMBLY_ISAMPLE_ELSET847
  *Elset, elset=ASSEMBLY_ISAMPLE_ELSET848
  *Elset, elset=ASSEMBLY_ISAMPLE_ELSET849
  *Elset, elset=ASSEMBLY_ISAMPLE_ELSET85
  *Elset, elset=ASSEMBLY_ISAMPLE_ELSET850
  *Elset, elset=ASSEMBLY_ISAMPLE_ELSET851
  *Elset, elset=ASSEMBLY_ISAMPLE_ELSET852
  *Elset, elset=ASSEMBLY_ISAMPLE_ELSET853
  *Elset, elset=ASSEMBLY_ISAMPLE_ELSET854
  *Elset, elset=ASSEMBLY_ISAMPLE_ELSET855
  *Elset, elset=ASSEMBLY_ISAMPLE_ELSET856
  *Elset, elset=ASSEMBLY_ISAMPLE_ELSET857
  *Elset, elset=ASSEMBLY_ISAMPLE_ELSET858
  *Elset, elset=ASSEMBLY_ISAMPLE_ELSET859
  *Elset, elset=ASSEMBLY_ISAMPLE_ELSET86
  *Elset, elset=ASSEMBLY_ISAMPLE_ELSET860
  *Elset, elset=ASSEMBLY_ISAMPLE_ELSET861
  *Elset, elset=ASSEMBLY_ISAMPLE_ELSET862
  *Elset, elset=ASSEMBLY_ISAMPLE_ELSET863
  *Elset, elset=ASSEMBLY_ISAMPLE_ELSET864
  *Elset, elset=ASSEMBLY_ISAMPLE_ELSET865
  *Elset, elset=ASSEMBLY_ISAMPLE_ELSET866
  *Elset, elset=ASSEMBLY_ISAMPLE_ELSET867
  *Elset, elset=ASSEMBLY_ISAMPLE_ELSET868
  *Elset, elset=ASSEMBLY_ISAMPLE_ELSET869
  *Elset, elset=ASSEMBLY_ISAMPLE_ELSET87
  *Elset, elset=ASSEMBLY_ISAMPLE_ELSET870
  *Elset, elset=ASSEMBLY_ISAMPLE_ELSET871
  *Elset, elset=ASSEMBLY_ISAMPLE_ELSET872
  *Elset, elset=ASSEMBLY_ISAMPLE_ELSET873
  *Elset, elset=ASSEMBLY_ISAMPLE_ELSET874
  *Elset, elset=ASSEMBLY_ISAMPLE_ELSET875
  *Elset, elset=ASSEMBLY_ISAMPLE_ELSET876
  *Elset, elset=ASSEMBLY_ISAMPLE_ELSET877
  *Elset, elset=ASSEMBLY_ISAMPLE_ELSET878
  *Elset, elset=ASSEMBLY_ISAMPLE_ELSET879
  *Elset, elset=ASSEMBLY_ISAMPLE_ELSET88
  *Elset, elset=ASSEMBLY_ISAMPLE_ELSET880
  *Elset, elset=ASSEMBLY_ISAMPLE_ELSET881
  *Elset, elset=ASSEMBLY_ISAMPLE_ELSET882
  *Elset, elset=ASSEMBLY_ISAMPLE_ELSET883
  *Elset, elset=ASSEMBLY_ISAMPLE_ELSET884
  *Elset, elset=ASSEMBLY_ISAMPLE_ELSET885
  *Elset, elset=ASSEMBLY_ISAMPLE_ELSET886
  *Elset, elset=ASSEMBLY_ISAMPLE_ELSET887
  *Elset, elset=ASSEMBLY_ISAMPLE_ELSET888
  *Elset, elset=ASSEMBLY_ISAMPLE_ELSET889
  *Elset, elset=ASSEMBLY_ISAMPLE_ELSET89
  *Elset, elset=ASSEMBLY_ISAMPLE_ELSET890
  *Elset, elset=ASSEMBLY_ISAMPLE_ELSET891
  *Elset, elset=ASSEMBLY_ISAMPLE_ELSET892
  *Elset, elset=ASSEMBLY_ISAMPLE_ELSET893
  *Elset, elset=ASSEMBLY_ISAMPLE_ELSET894
  *Elset, elset=ASSEMBLY_ISAMPLE_ELSET895
  *Elset, elset=ASSEMBLY_ISAMPLE_ELSET896
  *Elset, elset=ASSEMBLY_ISAMPLE_ELSET897
  *Elset, elset=ASSEMBLY_ISAMPLE_ELSET898
  *Elset, elset=ASSEMBLY_ISAMPLE_ELSET899
  *Elset, elset=ASSEMBLY_ISAMPLE_ELSET9
  *Elset, elset=ASSEMBLY_ISAMPLE_ELSET90
  *Elset, elset=ASSEMBLY_ISAMPLE_ELSET900
  *Elset, elset=ASSEMBLY_ISAMPLE_ELSET901
  *Elset, elset=ASSEMBLY_ISAMPLE_ELSET902
  *Elset, elset=ASSEMBLY_ISAMPLE_ELSET903
  *Elset, elset=ASSEMBLY_ISAMPLE_ELSET904
  *Elset, elset=ASSEMBLY_ISAMPLE_ELSET905
  *Elset, elset=ASSEMBLY_ISAMPLE_ELSET906
  *Elset, elset=ASSEMBLY_ISAMPLE_ELSET907
  *Elset, elset=ASSEMBLY_ISAMPLE_ELSET908
  *Elset, elset=ASSEMBLY_ISAMPLE_ELSET909
  *Elset, elset=ASSEMBLY_ISAMPLE_ELSET91
  *Elset, elset=ASSEMBLY_ISAMPLE_ELSET910
  *Elset, elset=ASSEMBLY_ISAMPLE_ELSET911
  *Elset, elset=ASSEMBLY_ISAMPLE_ELSET912
  *Elset, elset=ASSEMBLY_ISAMPLE_ELSET913
  *Elset, elset=ASSEMBLY_ISAMPLE_ELSET914
  *Elset, elset=ASSEMBLY_ISAMPLE_ELSET915
  *Elset, elset=ASSEMBLY_ISAMPLE_ELSET916
  *Elset, elset=ASSEMBLY_ISAMPLE_ELSET917
  *Elset, elset=ASSEMBLY_ISAMPLE_ELSET918
  *Elset, elset=ASSEMBLY_ISAMPLE_ELSET919
  *Elset, elset=ASSEMBLY_ISAMPLE_ELSET92
  *Elset, elset=ASSEMBLY_ISAMPLE_ELSET920
  *Elset, elset=ASSEMBLY_ISAMPLE_ELSET921
  *Elset, elset=ASSEMBLY_ISAMPLE_ELSET922
  *Elset, elset=ASSEMBLY_ISAMPLE_ELSET923
  *Elset, elset=ASSEMBLY_ISAMPLE_ELSET924
  *Elset, elset=ASSEMBLY_ISAMPLE_ELSET925
  *Elset, elset=ASSEMBLY_ISAMPLE_ELSET926
  *Elset, elset=ASSEMBLY_ISAMPLE_ELSET927
  *Elset, elset=ASSEMBLY_ISAMPLE_ELSET928
  *Elset, elset=ASSEMBLY_ISAMPLE_ELSET929
  *Elset, elset=ASSEMBLY_ISAMPLE_ELSET93
  *Elset, elset=ASSEMBLY_ISAMPLE_ELSET930
  *Elset, elset=ASSEMBLY_ISAMPLE_ELSET931
  *Elset, elset=ASSEMBLY_ISAMPLE_ELSET932
  *Elset, elset=ASSEMBLY_ISAMPLE_ELSET933
  *Elset, elset=ASSEMBLY_ISAMPLE_ELSET934
  *Elset, elset=ASSEMBLY_ISAMPLE_ELSET935
  *Elset, elset=ASSEMBLY_ISAMPLE_ELSET936
  *Elset, elset=ASSEMBLY_ISAMPLE_ELSET937
  *Elset, elset=ASSEMBLY_ISAMPLE_ELSET938
  *Elset, elset=ASSEMBLY_ISAMPLE_ELSET939
  *Elset, elset=ASSEMBLY_ISAMPLE_ELSET94
  *Elset, elset=ASSEMBLY_ISAMPLE_ELSET940
  *Elset, elset=ASSEMBLY_ISAMPLE_ELSET941
  *Elset, elset=ASSEMBLY_ISAMPLE_ELSET942
  *Elset, elset=ASSEMBLY_ISAMPLE_ELSET943
  *Elset, elset=ASSEMBLY_ISAMPLE_ELSET944
  *Elset, elset=ASSEMBLY_ISAMPLE_ELSET945
  *Elset, elset=ASSEMBLY_ISAMPLE_ELSET946
  *Elset, elset=ASSEMBLY_ISAMPLE_ELSET947
  *Elset, elset=ASSEMBLY_ISAMPLE_ELSET948
  *Elset, elset=ASSEMBLY_ISAMPLE_ELSET949
  *Elset, elset=ASSEMBLY_ISAMPLE_ELSET95
  *Elset, elset=ASSEMBLY_ISAMPLE_ELSET950
  *Elset, elset=ASSEMBLY_ISAMPLE_ELSET951
  *Elset, elset=ASSEMBLY_ISAMPLE_ELSET952
  *Elset, elset=ASSEMBLY_ISAMPLE_ELSET953
  *Elset, elset=ASSEMBLY_ISAMPLE_ELSET954
  *Elset, elset=ASSEMBLY_ISAMPLE_ELSET955
  *Elset, elset=ASSEMBLY_ISAMPLE_ELSET956
  *Elset, elset=ASSEMBLY_ISAMPLE_ELSET957
  *Elset, elset=ASSEMBLY_ISAMPLE_ELSET958
  *Elset, elset=ASSEMBLY_ISAMPLE_ELSET959
  *Elset, elset=ASSEMBLY_ISAMPLE_ELSET96
  *Elset, elset=ASSEMBLY_ISAMPLE_ELSET960
  *Elset, elset=ASSEMBLY_ISAMPLE_ELSET961
  *Elset, elset=ASSEMBLY_ISAMPLE_ELSET962
  *Elset, elset=ASSEMBLY_ISAMPLE_ELSET963
  *Elset, elset=ASSEMBLY_ISAMPLE_ELSET964
  *Elset, elset=ASSEMBLY_ISAMPLE_ELSET965
  *Elset, elset=ASSEMBLY_ISAMPLE_ELSET966
  *Elset, elset=ASSEMBLY_ISAMPLE_ELSET967
  *Elset, elset=ASSEMBLY_ISAMPLE_ELSET968
  *Elset, elset=ASSEMBLY_ISAMPLE_ELSET969
  *Elset, elset=ASSEMBLY_ISAMPLE_ELSET97
  *Elset, elset=ASSEMBLY_ISAMPLE_ELSET970
  *Elset, elset=ASSEMBLY_ISAMPLE_ELSET971
  *Elset, elset=ASSEMBLY_ISAMPLE_ELSET972
  *Elset, elset=ASSEMBLY_ISAMPLE_ELSET973
  *Elset, elset=ASSEMBLY_ISAMPLE_ELSET974
  *Elset, elset=ASSEMBLY_ISAMPLE_ELSET975
  *Elset, elset=ASSEMBLY_ISAMPLE_ELSET976
  *Elset, elset=ASSEMBLY_ISAMPLE_ELSET977
  *Elset, elset=ASSEMBLY_ISAMPLE_ELSET978
  *Elset, elset=ASSEMBLY_ISAMPLE_ELSET979
  *Elset, elset=ASSEMBLY_ISAMPLE_ELSET98
  *Elset, elset=ASSEMBLY_ISAMPLE_ELSET980
  *Elset, elset=ASSEMBLY_ISAMPLE_ELSET981
  *Elset, elset=ASSEMBLY_ISAMPLE_ELSET982
  *Elset, elset=ASSEMBLY_ISAMPLE_ELSET983
  *Elset, elset=ASSEMBLY_ISAMPLE_ELSET984
  *Elset, elset=ASSEMBLY_ISAMPLE_ELSET985
  *Elset, elset=ASSEMBLY_ISAMPLE_ELSET986
  *Elset, elset=ASSEMBLY_ISAMPLE_ELSET987
  *Elset, elset=ASSEMBLY_ISAMPLE_ELSET988
  *Elset, elset=ASSEMBLY_ISAMPLE_ELSET989
  *Elset, elset=ASSEMBLY_ISAMPLE_ELSET99
  *Elset, elset=ASSEMBLY_ISAMPLE_ELSET990
  *Elset, elset=ASSEMBLY_ISAMPLE_ELSET991
  *Elset, elset=ASSEMBLY_ISAMPLE_ELSET992
  *Elset, elset=ASSEMBLY_ISAMPLE_ELSET993
  *Elset, elset=ASSEMBLY_ISAMPLE_ELSET994
  *Elset, elset=ASSEMBLY_ISAMPLE_ELSET995
  *Elset, elset=ASSEMBLY_ISAMPLE_ELSET996
  *Elset, elset=ASSEMBLY_ISAMPLE_ELSET997
  *Elset, elset=ASSEMBLY_ISAMPLE_ELSET998
  *Elset, elset=ASSEMBLY_ISAMPLE_ELSET999
  *material, name=MAT_811
  *elastic
  *material, name=MAT_235
  *elastic
  *plastic
  *material, name=MAT_440
  *elastic
  *plastic
  *material, name=MAT_72
  *elastic
  *plastic
  *material, name=MAT_924
  *elastic
  *material, name=MAT_554
  *elastic
  *plastic
  *material, name=MAT_876
  *elastic
  *material, name=MAT_468
  *elastic
  *plastic
  *material, name=MAT_676
  *elastic
  *plastic
  *material, name=MAT_128
  *elastic
  *plastic
  *material, name=MAT_53
  *elastic
  *plastic
  *material, name=MAT_993
  *elastic
  *material, name=MAT_189
  *elastic
  *plastic
  *material, name=MAT_184
  *elastic
  *plastic
  *material, name=MAT_813
  *elastic
  *material, name=MAT_724
  *elastic
  *material, name=MAT_608
  *elastic
  *plastic
  *material, name=MAT_185
  *elastic
  *plastic
  *material, name=MAT_481
  *elastic
  *plastic
  *material, name=MAT_304
  *elastic
  *plastic
  *material, name=MAT_493
  *elastic
  *plastic
  *material, name=MAT_252
  *elastic
  *plastic
  *material, name=MAT_417
  *elastic
  *plastic
  *material, name=MAT_284
  *elastic
  *plastic
  *material, name=MAT_961
  *elastic
  *material, name=MAT_444
  *elastic
  *plastic
  *material, name=MAT_650
  *elastic
  *plastic
  *material, name=MAT_146
  *elastic
  *plastic
  *material, name=MAT_337
  *elastic
  *plastic
  *material, name=MAT_654
  *elastic
  *plastic
  *material, name=MAT_289
  *elastic
  *plastic
  *material, name=MAT_824
  *elastic
  *material, name=MAT_703
  *elastic
  *material, name=MAT_829
  *elastic
  *material, name=MAT_969
  *elastic
  *material, name=MAT_66
  *elastic
  *plastic
  *material, name=MAT_55
  *elastic
  *plastic
  *material, name=MAT_826
  *elastic
  *material, name=MAT_808
  *elastic
  *material, name=MAT_745
  *elastic
  *material, name=MAT_116
  *elastic
  *plastic
  *material, name=MAT_299
  *elastic
  *plastic
  *material, name=MAT_515
  *elastic
  *plastic
  *material, name=MAT_530
  *elastic
  *plastic
  *material, name=MAT_391
  *elastic
  *plastic
  *material, name=MAT_838
  *elastic
  *material, name=MAT_12
  *elastic
  *plastic
  *material, name=MAT_234
  *elastic
  *plastic
  *material, name=MAT_766
  *elastic
  *material, name=MAT_552
  *elastic
  *plastic
  *material, name=MAT_435
  *elastic
  *plastic
  *material, name=MAT_232
  *elastic
  *plastic
  *material, name=MAT_71
  *elastic
  *plastic
  *material, name=MAT_694
  *elastic
  *plastic
  *material, name=MAT_30
  *elastic
  *plastic
  *material, name=MAT_600
  *elastic
  *plastic
  *material, name=MAT_728
  *elastic
  *material, name=MAT_449
  *elastic
  *plastic
  *material, name=MAT_537
  *elastic
  *plastic
  *material, name=MAT_812
  *elastic
  *material, name=MAT_100
  *elastic
  *plastic
  *material, name=MAT_207
  *elastic
  *plastic
  *material, name=MAT_821
  *elastic
  *material, name=MAT_15
  *elastic
  *plastic
  *material, name=MAT_743
  *elastic
  *material, name=MAT_588
  *elastic
  *plastic
  *material, name=MAT_913
  *elastic
  *material, name=MAT_596
  *elastic
  *plastic
  *material, name=MAT_286
  *elastic
  *plastic
  *material, name=MAT_695
  *elastic
  *plastic
  *material, name=MAT_848
  *elastic
  *material, name=MAT_797
  *elastic
  *material, name=MAT_47
  *elastic
  *plastic
  *material, name=MAT_256
  *elastic
  *plastic
  *material, name=MAT_151
  *elastic
  *plastic
  *material, name=MAT_276
  *elastic
  *plastic
  *material, name=MAT_930
  *elastic
  *material, name=MAT_931
  *elastic
  *material, name=MAT_173
  *elastic
  *plastic
  *material, name=MAT_965
  *elastic
  *material, name=MAT_681
  *elastic
  *plastic
  *material, name=MAT_565
  *elastic
  *plastic
  *material, name=MAT_258
  *elastic
  *plastic
  *material, name=MAT_157
  *elastic
  *plastic
  *material, name=MAT_247
  *elastic
  *plastic
  *material, name=MAT_558
  *elastic
  *plastic
  *material, name=MAT_786
  *elastic
  *material, name=MAT_282
  *elastic
  *plastic
  *material, name=MAT_690
  *elastic
  *plastic
  *material, name=MAT_395
  *elastic
  *plastic
  *material, name=MAT_524
  *elastic
  *plastic
  *material, name=MAT_684
  *elastic
  *plastic
  *material, name=MAT_696
  *elastic
  *plastic
  *material, name=MAT_892
  *elastic
  *material, name=MAT_520
  *elastic
  *plastic
  *material, name=MAT_113
  *elastic
  *plastic
  *material, name=MAT_212
  *elastic
  *plastic
  *material, name=MAT_858
  *elastic
  *material, name=MAT_306
  *elastic
  *plastic
  *material, name=MAT_303
  *elastic
  *plastic
  *material, name=MAT_107
  *elastic
  *plastic
  *material, name=MAT_334
  *elastic
  *plastic
  *material, name=MAT_856
  *elastic
  *material, name=MAT_619
  *elastic
  *plastic
  *material, name=MAT_823
  *elastic
  *material, name=MAT_326
  *elastic
  *plastic
  *material, name=MAT_370
  *elastic
  *plastic
  *material, name=MAT_487
  *elastic
  *plastic
  *material, name=MAT_609
  *elastic
  *plastic
  *material, name=MAT_280
  *elastic
  *plastic
  *material, name=MAT_793
  *elastic
  *material, name=MAT_313
  *elastic
  *plastic
  *material, name=MAT_22
  *elastic
  *plastic
  *material, name=MAT_780
  *elastic
  *material, name=MAT_802
  *elastic
  *material, name=MAT_279
  *elastic
  *plastic
  *material, name=MAT_354
  *elastic
  *plastic
  *material, name=MAT_744
  *elastic
  *material, name=MAT_857
  *elastic
  *material, name=MAT_387
  *elastic
  *plastic
  *material, name=MAT_82
  *elastic
  *plastic
  *material, name=MAT_585
  *elastic
  *plastic
  *material, name=MAT_697
  *elastic
  *plastic
  *material, name=MAT_134
  *elastic
  *plastic
  *material, name=MAT_458
  *elastic
  *plastic
  *material, name=MAT_224
  *elastic
  *plastic
  *material, name=MAT_332
  *elastic
  *plastic
  *material, name=MAT_218
  *elastic
  *plastic
  *material, name=MAT_474
  *elastic
  *plastic
  *material, name=MAT_405
  *elastic
  *plastic
  *material, name=MAT_846
  *elastic
  *material, name=MAT_115
  *elastic
  *plastic
  *material, name=MAT_249
  *elastic
  *plastic
  *material, name=MAT_155
  *elastic
  *plastic
  *material, name=MAT_36
  *elastic
  *plastic
  *material, name=MAT_517
  *elastic
  *plastic
  *material, name=MAT_330
  *elastic
  *plastic
  *material, name=MAT_429
  *elastic
  *plastic
  *material, name=MAT_903
  *elastic
  *material, name=MAT_239
  *elastic
  *plastic
  *material, name=MAT_278
  *elastic
  *plastic
  *material, name=MAT_60
  *elastic
  *plastic
  *material, name=MAT_144
  *elastic
  *plastic
  *material, name=MAT_557
  *elastic
  *plastic
  *material, name=MAT_941
  *elastic
  *material, name=MAT_944
  *elastic
  *material, name=MAT_87
  *elastic
  *plastic
  *material, name=MAT_486
  *elastic
  *plastic
  *material, name=MAT_67
  *elastic
  *plastic
  *material, name=MAT_982
  *elastic
  *material, name=MAT_671
  *elastic
  *plastic
  *material, name=MAT_154
  *elastic
  *plastic
  *material, name=MAT_844
  *elastic
  *material, name=MAT_667
  *elastic
  *plastic
  *material, name=MAT_327
  *elastic
  *plastic
  *material, name=MAT_350
  *elastic
  *plastic
  *material, name=MAT_963
  *elastic
  *material, name=MAT_371
  *elastic
  *plastic
  *material, name=MAT_870
  *elastic
  *material, name=MAT_504
  *elastic
  *plastic
  *material, name=MAT_1
  *elastic
  *plastic
  *material, name=MAT_738
  *elastic
  *material, name=MAT_175
  *elastic
  *plastic
  *material, name=MAT_32
  *elastic
  *plastic
  *material, name=MAT_61
  *elastic
  *plastic
  *material, name=MAT_512
  *elastic
  *plastic
  *material, name=MAT_267
  *elastic
  *plastic
  *material, name=MAT_852
  *elastic
  *material, name=MAT_98
  *elastic
  *plastic
  *material, name=MAT_152
  *elastic
  *plastic
  *material, name=MAT_939
  *elastic
  *material, name=MAT_929
  *elastic
  *material, name=MAT_300
  *elastic
  *plastic
  *material, name=MAT_178
  *elastic
  *plastic
  *material, name=MAT_431
  *elastic
  *plastic
  *material, name=MAT_855
  *elastic
  *material, name=MAT_295
  *elastic
  *plastic
  *material, name=MAT_740
  *elastic
  *material, name=MAT_949
  *elastic
  *material, name=MAT_28
  *elastic
  *plastic
  *material, name=MAT_502
  *elastic
  *plastic
  *material, name=MAT_538
  *elastic
  *plastic
  *material, name=MAT_336
  *elastic
  *plastic
  *material, name=MAT_837
  *elastic
  *material, name=MAT_741
  *elastic
  *material, name=MAT_292
  *elastic
  *plastic
  *material, name=MAT_746
  *elastic
  *material, name=MAT_816
  *elastic
  *material, name=MAT_386
  *elastic
  *plastic
  *material, name=MAT_618
  *elastic
  *plastic
  *material, name=MAT_54
  *elastic
  *plastic
  *material, name=MAT_268
  *elastic
  *plastic
  *material, name=MAT_408
  *elastic
  *plastic
  *material, name=MAT_427
  *elastic
  *plastic
  *material, name=MAT_720
  *elastic
  *material, name=MAT_583
  *elastic
  *plastic
  *material, name=MAT_415
  *elastic
  *plastic
  *material, name=MAT_96
  *elastic
  *plastic
  *material, name=MAT_48
  *elastic
  *plastic
  *material, name=MAT_869
  *elastic
  *material, name=MAT_456
  *elastic
  *plastic
  *material, name=MAT_945
  *elastic
  *material, name=MAT_687
  *elastic
  *plastic
  *material, name=MAT_611
  *elastic
  *plastic
  *material, name=MAT_914
  *elastic
  *material, name=MAT_506
  *elastic
  *plastic
  *material, name=MAT_452
  *elastic
  *plastic
  *material, name=MAT_476
  *elastic
  *plastic
  *material, name=MAT_822
  *elastic
  *material, name=MAT_200
  *elastic
  *plastic
  *material, name=MAT_438
  *elastic
  *plastic
  *material, name=MAT_378
  *elastic
  *plastic
  *material, name=MAT_928
  *elastic
  *material, name=MAT_673
  *elastic
  *plastic
  *material, name=MAT_283
  *elastic
  *plastic
  *material, name=MAT_68
  *elastic
  *plastic
  *material, name=MAT_714
  *elastic
  *material, name=MAT_652
  *elastic
  *plastic
  *material, name=MAT_291
  *elastic
  *plastic
  *material, name=MAT_369
  *elastic
  *plastic
  *material, name=MAT_546
  *elastic
  *plastic
  *material, name=MAT_919
  *elastic
  *material, name=MAT_42
  *elastic
  *plastic
  *material, name=MAT_997
  *elastic
  *material, name=MAT_675
  *elastic
  *plastic
  *material, name=MAT_380
  *elastic
  *plastic
  *material, name=MAT_755
  *elastic
  *material, name=MAT_430
  *elastic
  *plastic
  *material, name=MAT_346
  *elastic
  *plastic
  *material, name=MAT_543
  *elastic
  *plastic
  *material, name=MAT_117
  *elastic
  *plastic
  *material, name=MAT_507
  *elastic
  *plastic
  *material, name=MAT_540
  *elastic
  *plastic
  *material, name=MAT_815
  *elastic
  *material, name=MAT_622
  *elastic
  *plastic
  *material, name=MAT_101
  *elastic
  *plastic
  *material, name=MAT_301
  *elastic
  *plastic
  *material, name=MAT_322
  *elastic
  *plastic
  *material, name=MAT_141
  *elastic
  *plastic
  *material, name=MAT_328
  *elastic
  *plastic
  *material, name=MAT_759
  *elastic
  *material, name=MAT_119
  *elastic
  *plastic
  *material, name=MAT_649
  *elastic
  *plastic
  *material, name=MAT_112
  *elastic
  *plastic
  *material, name=MAT_56
  *elastic
  *plastic
  *material, name=MAT_976
  *elastic
  *material, name=MAT_843
  *elastic
  *material, name=MAT_253
  *elastic
  *plastic
  *material, name=MAT_711
  *elastic
  *material, name=MAT_516
  *elastic
  *plastic
  *material, name=MAT_679
  *elastic
  *plastic
  *material, name=MAT_108
  *elastic
  *plastic
  *material, name=MAT_834
  *elastic
  *material, name=MAT_368
  *elastic
  *plastic
  *material, name=MAT_287
  *elastic
  *plastic
  *material, name=MAT_635
  *elastic
  *plastic
  *material, name=MAT_761
  *elastic
  *material, name=MAT_362
  *elastic
  *plastic
  *material, name=MAT_159
  *elastic
  *plastic
  *material, name=MAT_95
  *elastic
  *plastic
  *material, name=MAT_735
  *elastic
  *material, name=MAT_933
  *elastic
  *material, name=MAT_887
  *elastic
  *material, name=MAT_118
  *elastic
  *plastic
  *material, name=MAT_835
  *elastic
  *material, name=MAT_616
  *elastic
  *plastic
  *material, name=MAT_469
  *elastic
  *plastic
  *material, name=MAT_626
  *elastic
  *plastic
  *material, name=MAT_877
  *elastic
  *material, name=MAT_994
  *elastic
  *material, name=MAT_733
  *elastic
  *material, name=MAT_471
  *elastic
  *plastic
  *material, name=MAT_388
  *elastic
  *plastic
  *material, name=MAT_990
  *elastic
  *material, name=MAT_581
  *elastic
  *plastic
  *material, name=MAT_874
  *elastic
  *material, name=MAT_598
  *elastic
  *plastic
  *material, name=MAT_104
  *elastic
  *plastic
  *material, name=MAT_238
  *elastic
  *plastic
  *material, name=MAT_88
  *elastic
  *plastic
  *material, name=MAT_14
  *elastic
  *plastic
  *material, name=MAT_891
  *elastic
  *material, name=MAT_410
  *elastic
  *plastic
  *material, name=MAT_35
  *elastic
  *plastic
  *material, name=MAT_27
  *elastic
  *plastic
  *material, name=MAT_587
  *elastic
  *plastic
  *material, name=MAT_325
  *elastic
  *plastic
  *material, name=MAT_296
  *elastic
  *plastic
  *material, name=MAT_624
  *elastic
  *plastic
  *material, name=MAT_210
  *elastic
  *plastic
  *material, name=MAT_753
  *elastic
  *material, name=MAT_845
  *elastic
  *material, name=MAT_774
  *elastic
  *material, name=MAT_778
  *elastic
  *material, name=MAT_140
  *elastic
  *plastic
  *material, name=MAT_723
  *elastic
  *material, name=MAT_648
  *elastic
  *plastic
  *material, name=MAT_138
  *elastic
  *plastic
  *material, name=MAT_967
  *elastic
  *material, name=MAT_160
  *elastic
  *plastic
  *material, name=MAT_513
  *elastic
  *plastic
  *material, name=MAT_970
  *elastic
  *material, name=MAT_446
  *elastic
  *plastic
  *material, name=MAT_211
  *elastic
  *plastic
  *material, name=MAT_143
  *elastic
  *plastic
  *material, name=MAT_174
  *elastic
  *plastic
  *material, name=MAT_779
  *elastic
  *material, name=MAT_136
  *elastic
  *plastic
  *material, name=MAT_935
  *elastic
  *material, name=MAT_698
  *elastic
  *plastic
  *material, name=MAT_16
  *elastic
  *plastic
  *material, name=MAT_641
  *elastic
  *plastic
  *material, name=MAT_991
  *elastic
  *material, name=MAT_424
  *elastic
  *plastic
  *material, name=MAT_139
  *elastic
  *plastic
  *material, name=MAT_986
  *elastic
  *material, name=MAT_979
  *elastic
  *material, name=MAT_613
  *elastic
  *plastic
  *material, name=MAT_736
  *elastic
  *material, name=MAT_904
  *elastic
  *material, name=MAT_692
  *elastic
  *plastic
  *material, name=MAT_601
  *elastic
  *plastic
  *material, name=MAT_412
  *elastic
  *plastic
  *material, name=MAT_297
  *elastic
  *plastic
  *material, name=MAT_872
  *elastic
  *material, name=MAT_80
  *elastic
  *plastic
  *material, name=MAT_699
  *elastic
  *plastic
  *material, name=MAT_700
  *elastic
  *plastic
  *material, name=MAT_374
  *elastic
  *plastic
  *material, name=MAT_592
  *elastic
  *plastic
  *material, name=MAT_345
  *elastic
  *plastic
  *material, name=MAT_784
  *elastic
  *material, name=MAT_861
  *elastic
  *material, name=MAT_310
  *elastic
  *plastic
  *material, name=MAT_902
  *elastic
  *material, name=MAT_674
  *elastic
  *plastic
  *material, name=MAT_432
  *elastic
  *plastic
  *material, name=MAT_426
  *elastic
  *plastic
  *material, name=MAT_832
  *elastic
  *material, name=MAT_612
  *elastic
  *plastic
  *material, name=MAT_715
  *elastic
  *material, name=MAT_547
  *elastic
  *plastic
  *material, name=MAT_683
  *elastic
  *plastic
  *material, name=MAT_171
  *elastic
  *plastic
  *material, name=MAT_677
  *elastic
  *plastic
  *material, name=MAT_900
  *elastic
  *material, name=MAT_450
  *elastic
  *plastic
  *material, name=MAT_782
  *elastic
  *material, name=MAT_407
  *elastic
  *plastic
  *material, name=MAT_636
  *elastic
  *plastic
  *material, name=MAT_680
  *elastic
  *plastic
  *material, name=MAT_145
  *elastic
  *plastic
  *material, name=MAT_895
  *elastic
  *material, name=MAT_754
  *elastic
  *material, name=MAT_950
  *elastic
  *material, name=MAT_436
  *elastic
  *plastic
  *material, name=MAT_423
  *elastic
  *plastic
  *material, name=MAT_401
  *elastic
  *plastic
  *material, name=MAT_999
  *elastic
  *material, name=MAT_288
  *elastic
  *plastic
  *material, name=MAT_890
  *elastic
  *material, name=MAT_93
  *elastic
  *plastic
  *material, name=MAT_998
  *elastic
  *material, name=MAT_448
  *elastic
  *plastic
  *material, name=MAT_959
  *elastic
  *material, name=MAT_578
  *elastic
  *plastic
  *material, name=MAT_285
  *elastic
  *plastic
  *material, name=MAT_352
  *elastic
  *plastic
  *material, name=MAT_702
  *elastic
  *material, name=MAT_202
  *elastic
  *plastic
  *material, name=MAT_632
  *elastic
  *plastic
  *material, name=MAT_153
  *elastic
  *plastic
  *material, name=MAT_560
  *elastic
  *plastic
  *material, name=MAT_926
  *elastic
  *material, name=MAT_645
  *elastic
  *plastic
  *material, name=MAT_25
  *elastic
  *plastic
  *material, name=MAT_109
  *elastic
  *plastic
  *material, name=MAT_805
  *elastic
  *material, name=MAT_958
  *elastic
  *material, name=MAT_472
  *elastic
  *plastic
  *material, name=MAT_150
  *elastic
  *plastic
  *material, name=MAT_796
  *elastic
  *material, name=MAT_45
  *elastic
  *plastic
  *material, name=MAT_602
  *elastic
  *plastic
  *material, name=MAT_768
  *elastic
  *material, name=MAT_555
  *elastic
  *plastic
  *material, name=MAT_809
  *elastic
  *material, name=MAT_934
  *elastic
  *material, name=MAT_416
  *elastic
  *plastic
  *material, name=MAT_989
  *elastic
  *material, name=MAT_494
  *elastic
  *plastic
  *material, name=MAT_312
  *elastic
  *plastic
  *material, name=MAT_243
  *elastic
  *plastic
  *material, name=MAT_776
  *elastic
  *material, name=MAT_762
  *elastic
  *material, name=MAT_531
  *elastic
  *plastic
  *material, name=MAT_230
  *elastic
  *plastic
  *material, name=MAT_794
  *elastic
  *material, name=MAT_686
  *elastic
  *plastic
  *material, name=MAT_908
  *elastic
  *material, name=MAT_46
  *elastic
  *plastic
  *material, name=MAT_94
  *elastic
  *plastic
  *material, name=MAT_441
  *elastic
  *plastic
  *material, name=MAT_318
  *elastic
  *plastic
  *material, name=MAT_792
  *elastic
  *material, name=MAT_747
  *elastic
  *material, name=MAT_790
  *elastic
  *material, name=MAT_266
  *elastic
  *plastic
  *material, name=MAT_321
  *elastic
  *plastic
  *material, name=MAT_927
  *elastic
  *material, name=MAT_320
  *elastic
  *plastic
  *material, name=MAT_34
  *elastic
  *plastic
  *material, name=MAT_271
  *elastic
  *plastic
  *material, name=MAT_244
  *elastic
  *plastic
  *material, name=MAT_682
  *elastic
  *plastic
  *material, name=MAT_372
  *elastic
  *plastic
  *material, name=MAT_382
  *elastic
  *plastic
  *material, name=MAT_404
  *elastic
  *plastic
  *material, name=MAT_64
  *elastic
  *plastic
  *material, name=MAT_962
  *elastic
  *material, name=MAT_640
  *elastic
  *plastic
  *material, name=MAT_4
  *elastic
  *plastic
  *material, name=MAT_817
  *elastic
  *material, name=MAT_522
  *elastic
  *plastic
  *material, name=MAT_968
  *elastic
  *material, name=MAT_231
  *elastic
  *plastic
  *material, name=MAT_756
  *elastic
  *material, name=MAT_216
  *elastic
  *plastic
  *material, name=MAT_358
  *elastic
  *plastic
  *material, name=MAT_631
  *elastic
  *plastic
  *material, name=MAT_951
  *elastic
  *material, name=MAT_564
  *elastic
  *plastic
  *material, name=MAT_617
  *elastic
  *plastic
  *material, name=MAT_195
  *elastic
  *plastic
  *material, name=MAT_765
  *elastic
  *material, name=MAT_527
  *elastic
  *plastic
  *material, name=MAT_383
  *elastic
  *plastic
  *material, name=MAT_233
  *elastic
  *plastic
  *material, name=MAT_245
  *elastic
  *plastic
  *material, name=MAT_705
  *elastic
  *material, name=MAT_574
  *elastic
  *plastic
  *material, name=MAT_572
  *elastic
  *plastic
  *material, name=MAT_39
  *elastic
  *plastic
  *material, name=MAT_85
  *elastic
  *plastic
  *material, name=MAT_879
  *elastic
  *material, name=MAT_750
  *elastic
  *material, name=MAT_488
  *elastic
  *plastic
  *material, name=MAT_922
  *elastic
  *material, name=MAT_199
  *elastic
  *plastic
  *material, name=MAT_399
  *elastic
  *plastic
  *material, name=MAT_561
  *elastic
  *plastic
  *material, name=MAT_787
  *elastic
  *material, name=MAT_567
  *elastic
  *plastic
  *material, name=MAT_535
  *elastic
  *plastic
  *material, name=MAT_484
  *elastic
  *plastic
  *material, name=MAT_69
  *elastic
  *plastic
  *material, name=MAT_871
  *elastic
  *material, name=MAT_921
  *elastic
  *material, name=MAT_467
  *elastic
  *plastic
  *material, name=MAT_549
  *elastic
  *plastic
  *material, name=MAT_470
  *elastic
  *plastic
  *material, name=MAT_453
  *elastic
  *plastic
  *material, name=MAT_335
  *elastic
  *plastic
  *material, name=MAT_437
  *elastic
  *plastic
  *material, name=MAT_719
  *elastic
  *material, name=MAT_620
  *elastic
  *plastic
  *material, name=MAT_758
  *elastic
  *material, name=MAT_11
  *elastic
  *plastic
  *material, name=MAT_827
  *elastic
  *material, name=MAT_710
  *elastic
  *material, name=MAT_106
  *elastic
  *plastic
  *material, name=MAT_255
  *elastic
  *plastic
  *material, name=MAT_317
  *elastic
  *plastic
  *material, name=MAT_264
  *elastic
  *plastic
  *material, name=MAT_465
  *elastic
  *plastic
  *material, name=MAT_158
  *elastic
  *plastic
  *material, name=MAT_898
  *elastic
  *material, name=MAT_767
  *elastic
  *material, name=MAT_818
  *elastic
  *material, name=MAT_473
  *elastic
  *plastic
  *material, name=MAT_257
  *elastic
  *plastic
  *material, name=MAT_7
  *elastic
  *plastic
  *material, name=MAT_147
  *elastic
  *plastic
  *material, name=MAT_669
  *elastic
  *plastic
  *material, name=MAT_148
  *elastic
  *plastic
  *material, name=MAT_995
  *elastic
  *material, name=MAT_254
  *elastic
  *plastic
  *material, name=MAT_975
  *elastic
  *material, name=MAT_888
  *elastic
  *material, name=MAT_658
  *elastic
  *plastic
  *material, name=MAT_722
  *elastic
  *material, name=MAT_772
  *elastic
  *material, name=MAT_749
  *elastic
  *material, name=MAT_339
  *elastic
  *plastic
  *material, name=MAT_168
  *elastic
  *plastic
  *material, name=MAT_610
  *elastic
  *plastic
  *material, name=MAT_460
  *elastic
  *plastic
  *material, name=MAT_920
  *elastic
  *material, name=MAT_665
  *elastic
  *plastic
  *material, name=MAT_356
  *elastic
  *plastic
  *material, name=MAT_490
  *elastic
  *plastic
  *material, name=MAT_954
  *elastic
  *material, name=MAT_398
  *elastic
  *plastic
  *material, name=MAT_841
  *elastic
  *material, name=MAT_70
  *elastic
  *plastic
  *material, name=MAT_875
  *elastic
  *material, name=MAT_880
  *elastic
  *material, name=MAT_985
  *elastic
  *material, name=MAT_716
  *elastic
  *material, name=MAT_604
  *elastic
  *plastic
  *material, name=MAT_510
  *elastic
  *plastic
  *material, name=MAT_114
  *elastic
  *plastic
  *material, name=MAT_937
  *elastic
  *material, name=MAT_17
  *elastic
  *plastic
  *material, name=MAT_482
  *elastic
  *plastic
  *material, name=MAT_863
  *elastic
  *material, name=MAT_110
  *elastic
  *plastic
  *material, name=MAT_196
  *elastic
  *plastic
  *material, name=MAT_884
  *elastic
  *material, name=MAT_901
  *elastic
  *material, name=MAT_400
  *elastic
  *plastic
  *material, name=MAT_461
  *elastic
  *plastic
  *material, name=MAT_873
  *elastic
  *material, name=MAT_526
  *elastic
  *plastic
  *material, name=MAT_319
  *elastic
  *plastic
  *material, name=MAT_250
  *elastic
  *plastic
  *material, name=MAT_340
  *elastic
  *plastic
  *material, name=MAT_225
  *elastic
  *plastic
  *material, name=MAT_973
  *elastic
  *material, name=MAT_591
  *elastic
  *plastic
  *material, name=MAT_788
  *elastic
  *material, name=MAT_651
  *elastic
  *plastic
  *material, name=MAT_315
  *elastic
  *plastic
  *material, name=MAT_885
  *elastic
  *material, name=MAT_737
  *elastic
  *material, name=MAT_867
  *elastic
  *material, name=MAT_981
  *elastic
  *material, name=MAT_865
  *elastic
  *material, name=MAT_381
  *elastic
  *plastic
  *material, name=MAT_655
  *elastic
  *plastic
  *material, name=MAT_666
  *elastic
  *plastic
  *material, name=MAT_668
  *elastic
  *plastic
  *material, name=MAT_704
  *elastic
  *material, name=MAT_910
  *elastic
  *material, name=MAT_161
  *elastic
  *plastic
  *material, name=MAT_789
  *elastic
  *material, name=MAT_447
  *elastic
  *plastic
  *material, name=MAT_102
  *elastic
  *plastic
  *material, name=MAT_338
  *elastic
  *plastic
  *material, name=MAT_492
  *elastic
  *plastic
  *material, name=MAT_445
  *elastic
  *plastic
  *material, name=MAT_644
  *elastic
  *plastic
  *material, name=MAT_518
  *elastic
  *plastic
  *material, name=MAT_586
  *elastic
  *plastic
  *material, name=MAT_137
  *elastic
  *plastic
  *material, name=MAT_457
  *elastic
  *plastic
  *material, name=MAT_220
  *elastic
  *plastic
  *material, name=MAT_361
  *elastic
  *plastic
  *material, name=MAT_18
  *elastic
  *plastic
  *material, name=MAT_936
  *elastic
  *material, name=MAT_156
  *elastic
  *plastic
  *material, name=MAT_590
  *elastic
  *plastic
  *material, name=MAT_918
  *elastic
  *material, name=MAT_799
  *elastic
  *material, name=MAT_428
  *elastic
  *plastic
  *material, name=MAT_550
  *elastic
  *plastic
  *material, name=MAT_275
  *elastic
  *plastic
  *material, name=MAT_129
  *elastic
  *plastic
  *material, name=MAT_814
  *elastic
  *material, name=MAT_917
  *elastic
  *material, name=MAT_397
  *elastic
  *plastic
  *material, name=MAT_660
  *elastic
  *plastic
  *material, name=MAT_360
  *elastic
  *plastic
  *material, name=MAT_33
  *elastic
  *plastic
  *material, name=MAT_498
  *elastic
  *plastic
  *material, name=MAT_850
  *elastic
  *material, name=MAT_120
  *elastic
  *plastic
  *material, name=MAT_536
  *elastic
  *plastic
  *material, name=MAT_309
  *elastic
  *plastic
  *material, name=MAT_633
  *elastic
  *plastic
  *material, name=MAT_523
  *elastic
  *plastic
  *material, name=MAT_938
  *elastic
  *material, name=MAT_831
  *elastic
  *material, name=MAT_402
  *elastic
  *plastic
  *material, name=MAT_947
  *elastic
  *material, name=MAT_413
  *elastic
  *plastic
  *material, name=MAT_525
  *elastic
  *plastic
  *material, name=MAT_707
  *elastic
  *material, name=MAT_311
  *elastic
  *plastic
  *material, name=MAT_739
  *elastic
  *material, name=MAT_485
  *elastic
  *plastic
  *material, name=MAT_217
  *elastic
  *plastic
  *material, name=MAT_833
  *elastic
  *material, name=MAT_725
  *elastic
  *material, name=MAT_229
  *elastic
  *plastic
  *material, name=MAT_915
  *elastic
  *material, name=MAT_685
  *elastic
  *plastic
  *material, name=MAT_479
  *elastic
  *plastic
  *material, name=MAT_497
  *elastic
  *plastic
  *material, name=MAT_8
  *elastic
  *plastic
  *material, name=MAT_51
  *elastic
  *plastic
  *material, name=MAT_860
  *elastic
  *material, name=MAT_375
  *elastic
  *plastic
  *material, name=MAT_86
  *elastic
  *plastic
  *material, name=MAT_760
  *elastic
  *material, name=MAT_477
  *elastic
  *plastic
  *material, name=MAT_840
  *elastic
  *material, name=MAT_742
  *elastic
  *material, name=MAT_135
  *elastic
  *plastic
  *material, name=MAT_132
  *elastic
  *plastic
  *material, name=MAT_597
  *elastic
  *plastic
  *material, name=MAT_167
  *elastic
  *plastic
  *material, name=MAT_551
  *elastic
  *plastic
  *material, name=MAT_615
  *elastic
  *plastic
  *material, name=MAT_133
  *elastic
  *plastic
  *material, name=MAT_40
  *elastic
  *plastic
  *material, name=MAT_176
  *elastic
  *plastic
  *material, name=MAT_752
  *elastic
  *material, name=MAT_79
  *elastic
  *plastic
  *material, name=MAT_126
  *elastic
  *plastic
  *material, name=MAT_709
  *elastic
  *material, name=MAT_483
  *elastic
  *plastic
  *material, name=MAT_731
  *elastic
  *material, name=MAT_693
  *elastic
  *plastic
  *material, name=MAT_637
  *elastic
  *plastic
  *material, name=MAT_629
  *elastic
  *plastic
  *material, name=MAT_323
  *elastic
  *plastic
  *material, name=MAT_639
  *elastic
  *plastic
  *material, name=MAT_889
  *elastic
  *material, name=MAT_194
  *elastic
  *plastic
  *material, name=MAT_163
  *elastic
  *plastic
  *material, name=MAT_638
  *elastic
  *plastic
  *material, name=MAT_726
  *elastic
  *material, name=MAT_907
  *elastic
  *material, name=MAT_529
  *elastic
  *plastic
  *material, name=MAT_810
  *elastic
  *material, name=MAT_614
  *elastic
  *plastic
  *material, name=MAT_2
  *elastic
  *plastic
  *material, name=MAT_273
  *elastic
  *plastic
  *material, name=MAT_261
  *elastic
  *plastic
  *material, name=MAT_548
  *elastic
  *plastic
  *material, name=MAT_573
  *elastic
  *plastic
  *material, name=MAT_854
  *elastic
  *material, name=MAT_149
  *elastic
  *plastic
  *material, name=MAT_190
  *elastic
  *plastic
  *material, name=MAT_503
  *elastic
  *plastic
  *material, name=MAT_394
  *elastic
  *plastic
  *material, name=MAT_781
  *elastic
  *material, name=MAT_987
  *elastic
  *material, name=MAT_434
  *elastic
  *plastic
  *material, name=MAT_542
  *elastic
  *plastic
  *material, name=MAT_478
  *elastic
  *plastic
  *material, name=MAT_825
  *elastic
  *material, name=MAT_971
  *elastic
  *material, name=MAT_662
  *elastic
  *plastic
  *material, name=MAT_5
  *elastic
  *plastic
  *material, name=MAT_764
  *elastic
  *material, name=MAT_406
  *elastic
  *plastic
  *material, name=MAT_953
  *elastic
  *material, name=MAT_807
  *elastic
  *material, name=MAT_6
  *elastic
  *plastic
  *material, name=MAT_701
  *elastic
  *material, name=MAT_377
  *elastic
  *plastic
  *material, name=MAT_373
  *elastic
  *plastic
  *material, name=MAT_943
  *elastic
  *material, name=MAT_599
  *elastic
  *plastic
  *material, name=MAT_10
  *elastic
  *plastic
  *material, name=MAT_9
  *elastic
  *plastic
  *material, name=MAT_121
  *elastic
  *plastic
  *material, name=MAT_593
  *elastic
  *plastic
  *material, name=MAT_730
  *elastic
  *material, name=MAT_712
  *elastic
  *material, name=MAT_956
  *elastic
  *material, name=MAT_92
  *elastic
  *plastic
  *material, name=MAT_992
  *elastic
  *material, name=MAT_836
  *elastic
  *material, name=MAT_727
  *elastic
  *material, name=MAT_514
  *elastic
  *plastic
  *material, name=MAT_269
  *elastic
  *plastic
  *material, name=MAT_505
  *elastic
  *plastic
  *material, name=MAT_351
  *elastic
  *plastic
  *material, name=MAT_389
  *elastic
  *plastic
  *material, name=MAT_783
  *elastic
  *material, name=MAT_65
  *elastic
  *plastic
  *material, name=MAT_385
  *elastic
  *plastic
  *material, name=MAT_3
  *elastic
  *plastic
  *material, name=MAT_298
  *elastic
  *plastic
  *material, name=MAT_105
  *elastic
  *plastic
  *material, name=MAT_553
  *elastic
  *plastic
  *material, name=MAT_215
  *elastic
  *plastic
  *material, name=MAT_169
  *elastic
  *plastic
  *material, name=MAT_73
  *elastic
  *plastic
  *material, name=MAT_576
  *elastic
  *plastic
  *material, name=MAT_281
  *elastic
  *plastic
  *material, name=MAT_545
  *elastic
  *plastic
  *material, name=MAT_785
  *elastic
  *material, name=MAT_464
  *elastic
  *plastic
  *material, name=MAT_625
  *elastic
  *plastic
  *material, name=MAT_978
  *elastic
  *material, name=MAT_563
  *elastic
  *plastic
  *material, name=MAT_980
  *elastic
  *material, name=MAT_495
  *elastic
  *plastic
  *material, name=MAT_496
  *elastic
  *plastic
  *material, name=MAT_131
  *elastic
  *plastic
  *material, name=MAT_83
  *elastic
  *plastic
  *material, name=MAT_122
  *elastic
  *plastic
  *material, name=MAT_127
  *elastic
  *plastic
  *material, name=MAT_906
  *elastic
  *material, name=MAT_259
  *elastic
  *plastic
  *material, name=MAT_653
  *elastic
  *plastic
  *material, name=MAT_242
  *elastic
  *plastic
  *material, name=MAT_607
  *elastic
  *plastic
  *material, name=MAT_206
  *elastic
  *plastic
  *material, name=MAT_26
  *elastic
  *plastic
  *material, name=MAT_584
  *elastic
  *plastic
  *material, name=MAT_203
  *elastic
  *plastic
  *material, name=MAT_804
  *elastic
  *material, name=MAT_912
  *elastic
  *material, name=MAT_393
  *elastic
  *plastic
  *material, name=MAT_511
  *elastic
  *plastic
  *material, name=MAT_75
  *elastic
  *plastic
  *material, name=MAT_594
  *elastic
  *plastic
  *material, name=MAT_222
  *elastic
  *plastic
  *material, name=MAT_489
  *elastic
  *plastic
  *material, name=MAT_111
  *elastic
  *plastic
  *material, name=MAT_353
  *elastic
  *plastic
  *material, name=MAT_606
  *elastic
  *plastic
  *material, name=MAT_41
  *elastic
  *plastic
  *material, name=MAT_579
  *elastic
  *plastic
  *material, name=MAT_556
  *elastic
  *plastic
  *material, name=MAT_260
  *elastic
  *plastic
  *material, name=MAT_293
  *elastic
  *plastic
  *material, name=MAT_124
  *elastic
  *plastic
  *material, name=MAT_656
  *elastic
  *plastic
  *material, name=MAT_43
  *elastic
  *plastic
  *material, name=MAT_859
  *elastic
  *material, name=MAT_366
  *elastic
  *plastic
  *material, name=MAT_165
  *elastic
  *plastic
  *material, name=MAT_864
  *elastic
  *material, name=MAT_343
  *elastic
  *plastic
  *material, name=MAT_305
  *elastic
  *plastic
  *material, name=MAT_568
  *elastic
  *plastic
  *material, name=MAT_392
  *elastic
  *plastic
  *material, name=MAT_570
  *elastic
  *plastic
  *material, name=MAT_364
  *elastic
  *plastic
  *material, name=MAT_862
  *elastic
  *material, name=MAT_376
  *elastic
  *plastic
  *material, name=MAT_363
  *elastic
  *plastic
  *material, name=MAT_630
  *elastic
  *plastic
  *material, name=MAT_717
  *elastic
  *material, name=MAT_179
  *elastic
  *plastic
  *material, name=MAT_977
  *elastic
  *material, name=MAT_571
  *elastic
  *plastic
  *material, name=MAT_213
  *elastic
  *plastic
  *material, name=MAT_849
  *elastic
  *material, name=MAT_237
  *elastic
  *plastic
  *material, name=MAT_480
  *elastic
  *plastic
  *material, name=MAT_718
  *elastic
  *material, name=MAT_62
  *elastic
  *plastic
  *material, name=MAT_882
  *elastic
  *material, name=MAT_81
  *elastic
  *plastic
  *material, name=MAT_729
  *elastic
  *material, name=MAT_442
  *elastic
  *plastic
  *material, name=MAT_342
  *elastic
  *plastic
  *material, name=MAT_966
  *elastic
[...]
  *solidsection, elset=ASSEMBLY_ISAMPLE_ELSET796, material=MAT_248
  *solidsection, elset=ASSEMBLY_ISAMPLE_ELSET797, material=MAT_125
  *solidsection, elset=ASSEMBLY_ISAMPLE_ELSET798, material=MAT_24
  *solidsection, elset=ASSEMBLY_ISAMPLE_ELSET799, material=MAT_439
  *solidsection, elset=ASSEMBLY_ISAMPLE_ELSET800, material=MAT_240
  *solidsection, elset=ASSEMBLY_ISAMPLE_ELSET801, material=MAT_905
  *solidsection, elset=ASSEMBLY_ISAMPLE_ELSET802, material=MAT_455
  *solidsection, elset=ASSEMBLY_ISAMPLE_ELSET803, material=MAT_209
  *solidsection, elset=ASSEMBLY_ISAMPLE_ELSET804, material=MAT_219
  *solidsection, elset=ASSEMBLY_ISAMPLE_ELSET805, material=MAT_678
  *solidsection, elset=ASSEMBLY_ISAMPLE_ELSET806, material=MAT_803
  *solidsection, elset=ASSEMBLY_ISAMPLE_ELSET807, material=MAT_798
  *solidsection, elset=ASSEMBLY_ISAMPLE_ELSET808, material=MAT_946
  *solidsection, elset=ASSEMBLY_ISAMPLE_ELSET809, material=MAT_628
  *solidsection, elset=ASSEMBLY_ISAMPLE_ELSET810, material=MAT_451
  *solidsection, elset=ASSEMBLY_ISAMPLE_ELSET811, material=MAT_201
  *solidsection, elset=ASSEMBLY_ISAMPLE_ELSET812, material=MAT_204
  *solidsection, elset=ASSEMBLY_ISAMPLE_ELSET813, material=MAT_223
  *solidsection, elset=ASSEMBLY_ISAMPLE_ELSET814, material=MAT_974
  *solidsection, elset=ASSEMBLY_ISAMPLE_ELSET815, material=MAT_897
  *solidsection, elset=ASSEMBLY_ISAMPLE_ELSET816, material=MAT_236
  *solidsection, elset=ASSEMBLY_ISAMPLE_ELSET817, material=MAT_842
  *solidsection, elset=ASSEMBLY_ISAMPLE_ELSET818, material=MAT_181
  *solidsection, elset=ASSEMBLY_ISAMPLE_ELSET819, material=MAT_672
  *solidsection, elset=ASSEMBLY_ISAMPLE_ELSET820, material=MAT_462
  *solidsection, elset=ASSEMBLY_ISAMPLE_ELSET821, material=MAT_800
  *solidsection, elset=ASSEMBLY_ISAMPLE_ELSET822, material=MAT_396
  *solidsection, elset=ASSEMBLY_ISAMPLE_ELSET823, material=MAT_575
  *solidsection, elset=ASSEMBLY_ISAMPLE_ELSET824, material=MAT_466
  *solidsection, elset=ASSEMBLY_ISAMPLE_ELSET825, material=MAT_948
  *solidsection, elset=ASSEMBLY_ISAMPLE_ELSET826, material=MAT_559
  *solidsection, elset=ASSEMBLY_ISAMPLE_ELSET827, material=MAT_773
  *solidsection, elset=ASSEMBLY_ISAMPLE_ELSET828, material=MAT_770
  *solidsection, elset=ASSEMBLY_ISAMPLE_ELSET829, material=MAT_940
  *solidsection, elset=ASSEMBLY_ISAMPLE_ELSET830, material=MAT_646
  *solidsection, elset=ASSEMBLY_ISAMPLE_ELSET831, material=MAT_52
  *solidsection, elset=ASSEMBLY_ISAMPLE_ELSET832, material=MAT_172
  *solidsection, elset=ASSEMBLY_ISAMPLE_ELSET833, material=MAT_463
  *solidsection, elset=ASSEMBLY_ISAMPLE_ELSET834, material=MAT_894
  *solidsection, elset=ASSEMBLY_ISAMPLE_ELSET835, material=MAT_263
  *solidsection, elset=ASSEMBLY_ISAMPLE_ELSET836, material=MAT_932
  *solidsection, elset=ASSEMBLY_ISAMPLE_ELSET837, material=MAT_509
  *solidsection, elset=ASSEMBLY_ISAMPLE_ELSET838, material=MAT_192
  *solidsection, elset=ASSEMBLY_ISAMPLE_ELSET839, material=MAT_226
  *solidsection, elset=ASSEMBLY_ISAMPLE_ELSET840, material=MAT_214
  *solidsection, elset=ASSEMBLY_ISAMPLE_ELSET841, material=MAT_830
  *solidsection, elset=ASSEMBLY_ISAMPLE_ELSET842, material=MAT_983
  *solidsection, elset=ASSEMBLY_ISAMPLE_ELSET843, material=MAT_384
  *solidsection, elset=ASSEMBLY_ISAMPLE_ELSET844, material=MAT_839
  *solidsection, elset=ASSEMBLY_ISAMPLE_ELSET845, material=MAT_866
  *solidsection, elset=ASSEMBLY_ISAMPLE_ELSET846, material=MAT_208
  *solidsection, elset=ASSEMBLY_ISAMPLE_ELSET847, material=MAT_899
  *solidsection, elset=ASSEMBLY_ISAMPLE_ELSET848, material=MAT_274
  *solidsection, elset=ASSEMBLY_ISAMPLE_ELSET849, material=MAT_221
  *solidsection, elset=ASSEMBLY_ISAMPLE_ELSET850, material=MAT_771
  *solidsection, elset=ASSEMBLY_ISAMPLE_ELSET851, material=MAT_265
  *solidsection, elset=ASSEMBLY_ISAMPLE_ELSET852, material=MAT_957
  *solidsection, elset=ASSEMBLY_ISAMPLE_ELSET853, material=MAT_314
  *solidsection, elset=ASSEMBLY_ISAMPLE_ELSET854, material=MAT_664
  *solidsection, elset=ASSEMBLY_ISAMPLE_ELSET855, material=MAT_909
  *solidsection, elset=ASSEMBLY_ISAMPLE_ELSET856, material=MAT_689
  *solidsection, elset=ASSEMBLY_ISAMPLE_ELSET857, material=MAT_347
  *solidsection, elset=ASSEMBLY_ISAMPLE_ELSET858, material=MAT_534
  *solidsection, elset=ASSEMBLY_ISAMPLE_ELSET859, material=MAT_420
  *solidsection, elset=ASSEMBLY_ISAMPLE_ELSET860, material=MAT_182
  *solidsection, elset=ASSEMBLY_ISAMPLE_ELSET861, material=MAT_329
  *solidsection, elset=ASSEMBLY_ISAMPLE_ELSET862, material=MAT_539
  *solidsection, elset=ASSEMBLY_ISAMPLE_ELSET863, material=MAT_142
  *solidsection, elset=ASSEMBLY_ISAMPLE_ELSET864, material=MAT_97
  *solidsection, elset=ASSEMBLY_ISAMPLE_ELSET865, material=MAT_544
  *solidsection, elset=ASSEMBLY_ISAMPLE_ELSET866, material=MAT_50
  *solidsection, elset=ASSEMBLY_ISAMPLE_ELSET867, material=MAT_228
  *solidsection, elset=ASSEMBLY_ISAMPLE_ELSET868, material=MAT_191
  *solidsection, elset=ASSEMBLY_ISAMPLE_ELSET869, material=MAT_708
  *solidsection, elset=ASSEMBLY_ISAMPLE_ELSET870, material=MAT_409
  *solidsection, elset=ASSEMBLY_ISAMPLE_ELSET871, material=MAT_643
  *solidsection, elset=ASSEMBLY_ISAMPLE_ELSET872, material=MAT_316
  *solidsection, elset=ASSEMBLY_ISAMPLE_ELSET873, material=MAT_501
  *solidsection, elset=ASSEMBLY_ISAMPLE_ELSET874, material=MAT_241
  *solidsection, elset=ASSEMBLY_ISAMPLE_ELSET875, material=MAT_433
  *solidsection, elset=ASSEMBLY_ISAMPLE_ELSET876, material=MAT_988
  *solidsection, elset=ASSEMBLY_ISAMPLE_ELSET877, material=MAT_187
  *solidsection, elset=ASSEMBLY_ISAMPLE_ELSET878, material=MAT_886
  *solidsection, elset=ASSEMBLY_ISAMPLE_ELSET879, material=MAT_605
  *solidsection, elset=ASSEMBLY_ISAMPLE_ELSET880, material=MAT_491
  *solidsection, elset=ASSEMBLY_ISAMPLE_ELSET881, material=MAT_23
  *solidsection, elset=ASSEMBLY_ISAMPLE_ELSET882, material=MAT_883
  *solidsection, elset=ASSEMBLY_ISAMPLE_ELSET883, material=MAT_44
  *solidsection, elset=ASSEMBLY_ISAMPLE_ELSET884, material=MAT_896
  *solidsection, elset=ASSEMBLY_ISAMPLE_ELSET885, material=MAT_193
  *solidsection, elset=ASSEMBLY_ISAMPLE_ELSET886, material=MAT_751
  *solidsection, elset=ASSEMBLY_ISAMPLE_ELSET887, material=MAT_57
  *solidsection, elset=ASSEMBLY_ISAMPLE_ELSET888, material=MAT_180
  *solidsection, elset=ASSEMBLY_ISAMPLE_ELSET889, material=MAT_595
  *solidsection, elset=ASSEMBLY_ISAMPLE_ELSET890, material=MAT_916
  *solidsection, elset=ASSEMBLY_ISAMPLE_ELSET891, material=MAT_627
  *solidsection, elset=ASSEMBLY_ISAMPLE_ELSET892, material=MAT_251
  *solidsection, elset=ASSEMBLY_ISAMPLE_ELSET893, material=MAT_411
  *solidsection, elset=ASSEMBLY_ISAMPLE_ELSET894, material=MAT_1000
  *solidsection, elset=ASSEMBLY_ISAMPLE_ELSET895, material=MAT_623
  *solidsection, elset=ASSEMBLY_ISAMPLE_ELSET896, material=MAT_58
  *solidsection, elset=ASSEMBLY_ISAMPLE_ELSET897, material=MAT_348
  *solidsection, elset=ASSEMBLY_ISAMPLE_ELSET898, material=MAT_721
  *solidsection, elset=ASSEMBLY_ISAMPLE_ELSET899, material=MAT_227
  *solidsection, elset=ASSEMBLY_ISAMPLE_ELSET900, material=MAT_419
  *solidsection, elset=ASSEMBLY_ISAMPLE_ELSET901, material=MAT_688
  *solidsection, elset=ASSEMBLY_ISAMPLE_ELSET902, material=MAT_77
  *solidsection, elset=ASSEMBLY_ISAMPLE_ELSET903, material=MAT_308
  *solidsection, elset=ASSEMBLY_ISAMPLE_ELSET904, material=MAT_170
  *solidsection, elset=ASSEMBLY_ISAMPLE_ELSET905, material=MAT_37
  *solidsection, elset=ASSEMBLY_ISAMPLE_ELSET906, material=MAT_972
  *solidsection, elset=ASSEMBLY_ISAMPLE_ELSET907, material=MAT_76
  *solidsection, elset=ASSEMBLY_ISAMPLE_ELSET908, material=MAT_333
  *solidsection, elset=ASSEMBLY_ISAMPLE_ELSET909, material=MAT_324
  *solidsection, elset=ASSEMBLY_ISAMPLE_ELSET910, material=MAT_123
  *solidsection, elset=ASSEMBLY_ISAMPLE_ELSET911, material=MAT_13
  *solidsection, elset=ASSEMBLY_ISAMPLE_ELSET912, material=MAT_90
  *solidsection, elset=ASSEMBLY_ISAMPLE_ELSET913, material=MAT_349
  *solidsection, elset=ASSEMBLY_ISAMPLE_ELSET914, material=MAT_706
  *solidsection, elset=ASSEMBLY_ISAMPLE_ELSET915, material=MAT_734
  *solidsection, elset=ASSEMBLY_ISAMPLE_ELSET916, material=MAT_820
  *solidsection, elset=ASSEMBLY_ISAMPLE_ELSET917, material=MAT_302
  *solidsection, elset=ASSEMBLY_ISAMPLE_ELSET918, material=MAT_577
  *solidsection, elset=ASSEMBLY_ISAMPLE_ELSET919, material=MAT_647
  *solidsection, elset=ASSEMBLY_ISAMPLE_ELSET920, material=MAT_562
  *solidsection, elset=ASSEMBLY_ISAMPLE_ELSET921, material=MAT_183
  *solidsection, elset=ASSEMBLY_ISAMPLE_ELSET922, material=MAT_421
  *solidsection, elset=ASSEMBLY_ISAMPLE_ELSET923, material=MAT_459
  *solidsection, elset=ASSEMBLY_ISAMPLE_ELSET924, material=MAT_795
  *solidsection, elset=ASSEMBLY_ISAMPLE_ELSET925, material=MAT_508
  *solidsection, elset=ASSEMBLY_ISAMPLE_ELSET926, material=MAT_657
  *solidsection, elset=ASSEMBLY_ISAMPLE_ELSET927, material=MAT_661
  *solidsection, elset=ASSEMBLY_ISAMPLE_ELSET928, material=MAT_166
  *solidsection, elset=ASSEMBLY_ISAMPLE_ELSET929, material=MAT_964
  *solidsection, elset=ASSEMBLY_ISAMPLE_ELSET930, material=MAT_59
  *solidsection, elset=ASSEMBLY_ISAMPLE_ELSET931, material=MAT_20
  *solidsection, elset=ASSEMBLY_ISAMPLE_ELSET932, material=MAT_379
  *solidsection, elset=ASSEMBLY_ISAMPLE_ELSET933, material=MAT_418
  *solidsection, elset=ASSEMBLY_ISAMPLE_ELSET934, material=MAT_670
  *solidsection, elset=ASSEMBLY_ISAMPLE_ELSET935, material=MAT_205
  *solidsection, elset=ASSEMBLY_ISAMPLE_ELSET936, material=MAT_103
  *solidsection, elset=ASSEMBLY_ISAMPLE_ELSET937, material=MAT_290
  *solidsection, elset=ASSEMBLY_ISAMPLE_ELSET938, material=MAT_911
  *solidsection, elset=ASSEMBLY_ISAMPLE_ELSET939, material=MAT_819
  *solidsection, elset=ASSEMBLY_ISAMPLE_ELSET940, material=MAT_955
  *solidsection, elset=ASSEMBLY_ISAMPLE_ELSET941, material=MAT_659
  *solidsection, elset=ASSEMBLY_ISAMPLE_ELSET942, material=MAT_331
  *solidsection, elset=ASSEMBLY_ISAMPLE_ELSET943, material=MAT_177
  *solidsection, elset=ASSEMBLY_ISAMPLE_ELSET944, material=MAT_74
  *solidsection, elset=ASSEMBLY_ISAMPLE_ELSET945, material=MAT_99
  *solidsection, elset=ASSEMBLY_ISAMPLE_ELSET946, material=MAT_775
  *solidsection, elset=ASSEMBLY_ISAMPLE_ELSET947, material=MAT_925
  *solidsection, elset=ASSEMBLY_ISAMPLE_ELSET948, material=MAT_367
  *solidsection, elset=ASSEMBLY_ISAMPLE_ELSET949, material=MAT_828
  *solidsection, elset=ASSEMBLY_ISAMPLE_ELSET950, material=MAT_390
  *solidsection, elset=ASSEMBLY_ISAMPLE_ELSET951, material=MAT_923
  *solidsection, elset=ASSEMBLY_ISAMPLE_ELSET952, material=MAT_246
  *solidsection, elset=ASSEMBLY_ISAMPLE_ELSET953, material=MAT_748
  *solidsection, elset=ASSEMBLY_ISAMPLE_ELSET954, material=MAT_63
  *solidsection, elset=ASSEMBLY_ISAMPLE_ELSET955, material=MAT_344
  *solidsection, elset=ASSEMBLY_ISAMPLE_ELSET956, material=MAT_341
  *solidsection, elset=ASSEMBLY_ISAMPLE_ELSET957, material=MAT_634
  *solidsection, elset=ASSEMBLY_ISAMPLE_ELSET958, material=MAT_732
  *solidsection, elset=ASSEMBLY_ISAMPLE_ELSET959, material=MAT_878
  *solidsection, elset=ASSEMBLY_ISAMPLE_ELSET960, material=MAT_691
  *solidsection, elset=ASSEMBLY_ISAMPLE_ELSET961, material=MAT_853
  *solidsection, elset=ASSEMBLY_ISAMPLE_ELSET962, material=MAT_186
  *solidsection, elset=ASSEMBLY_ISAMPLE_ELSET963, material=MAT_422
  *solidsection, elset=ASSEMBLY_ISAMPLE_ELSET964, material=MAT_164
  *solidsection, elset=ASSEMBLY_ISAMPLE_ELSET965, material=MAT_589
  *solidsection, elset=ASSEMBLY_ISAMPLE_ELSET966, material=MAT_294
  *solidsection, elset=ASSEMBLY_ISAMPLE_ELSET967, material=MAT_893
  *solidsection, elset=ASSEMBLY_ISAMPLE_ELSET968, material=MAT_521
  *solidsection, elset=ASSEMBLY_ISAMPLE_ELSET969, material=MAT_868
  *solidsection, elset=ASSEMBLY_ISAMPLE_ELSET970, material=MAT_580
  *solidsection, elset=ASSEMBLY_ISAMPLE_ELSET971, material=MAT_355
  *solidsection, elset=ASSEMBLY_ISAMPLE_ELSET972, material=MAT_541
  *solidsection, elset=ASSEMBLY_ISAMPLE_ELSET973, material=MAT_29
  *solidsection, elset=ASSEMBLY_ISAMPLE_ELSET974, material=MAT_38
  *solidsection, elset=ASSEMBLY_ISAMPLE_ELSET975, material=MAT_270
  *solidsection, elset=ASSEMBLY_ISAMPLE_ELSET976, material=MAT_806
  *solidsection, elset=ASSEMBLY_ISAMPLE_ELSET977, material=MAT_262
  *solidsection, elset=ASSEMBLY_ISAMPLE_ELSET978, material=MAT_425
  *solidsection, elset=ASSEMBLY_ISAMPLE_ELSET979, material=MAT_307
  *solidsection, elset=ASSEMBLY_ISAMPLE_ELSET980, material=MAT_359
  *solidsection, elset=ASSEMBLY_ISAMPLE_ELSET981, material=MAT_198
  *solidsection, elset=ASSEMBLY_ISAMPLE_ELSET982, material=MAT_91
  *solidsection, elset=ASSEMBLY_ISAMPLE_ELSET983, material=MAT_532
  *solidsection, elset=ASSEMBLY_ISAMPLE_ELSET984, material=MAT_403
  *solidsection, elset=ASSEMBLY_ISAMPLE_ELSET985, material=MAT_475
  *solidsection, elset=ASSEMBLY_ISAMPLE_ELSET986, material=MAT_984
  *solidsection, elset=ASSEMBLY_ISAMPLE_ELSET987, material=MAT_277
  *solidsection, elset=ASSEMBLY_ISAMPLE_ELSET988, material=MAT_19
  *solidsection, elset=ASSEMBLY_ISAMPLE_ELSET989, material=MAT_500
  *solidsection, elset=ASSEMBLY_ISAMPLE_ELSET990, material=MAT_777
  *solidsection, elset=ASSEMBLY_ISAMPLE_ELSET991, material=MAT_78
  *solidsection, elset=ASSEMBLY_ISAMPLE_ELSET992, material=MAT_49
  *solidsection, elset=ASSEMBLY_ISAMPLE_ELSET993, material=MAT_801
  *solidsection, elset=ASSEMBLY_ISAMPLE_ELSET994, material=MAT_763
  *solidsection, elset=ASSEMBLY_ISAMPLE_ELSET995, material=MAT_847
  *solidsection, elset=ASSEMBLY_ISAMPLE_ELSET996, material=MAT_533
  *solidsection, elset=ASSEMBLY_ISAMPLE_ELSET997, material=MAT_621
  *solidsection, elset=ASSEMBLY_ISAMPLE_ELSET998, material=MAT_454
  *solidsection, elset=ASSEMBLY_ISAMPLE_ELSET999, material=MAT_272
  *solidsection, elset=ASSEMBLY_ISAMPLE_ELSET1000, material=MAT_952
  *output, field, frequency=999999
  *output, history
  *elementoutput, directions=YES
  *elementoutput, elset=ASSEMBLY_ISAMPLE_ALLELEMENTS, directions=NO
  *output, field, frequency=999999
  *output, history
  *elementoutput, directions=YES
  *elementoutput, elset=ASSEMBLY_ISAMPLE_ALLELEMENTS, directions=NO
  *output, field, frequency=999999
  *output, history
  *elementoutput, directions=YES
  *elementoutput, elset=ASSEMBLY_ISAMPLE_ALLELEMENTS, directions=NO
  *Step, name=Loading0, nlgeom=YES, inc=1000000
  *output, field, frequency=999999
  *output, history
  *Step, name=Loading0, nlgeom=YES, inc=1000000
  *Step, name=Loading0, nlgeom=YES, inc=1000000
  *static
  *boundary
  *output, field, frequency=999999
  *elementoutput, directions=YES
  *output, history
  *energyoutput
  *elementoutput, elset=ASSEMBLY_ISAMPLE_ALLELEMENTS, directions=NO
  *endstep
  *Step, name=Loading0, nlgeom=YES, inc=1000000
  *static
  *boundary
  *output, field, frequency=999999
  *nodeoutput
  *output, history
  *nodeoutput, nset=ASSEMBLY_ISAMPLE_TOP
  *nodeoutput, nset=ASSEMBLY_ISAMPLE_TOPLEFT
  *nodeoutput, nset=ASSEMBLY_ISAMPLE_LEFT
  *nodeoutput, nset=ASSEMBLY_ISAMPLE_RIGHT
  *endstep



                            P R O B L E M   S I Z E


          NUMBER OF ELEMENTS IS                                  1000
          NUMBER OF NODES IS                                     1331
          NUMBER OF NODES DEFINED BY THE USER                    1331
          TOTAL NUMBER OF VARIABLES IN THE MODEL                 3993
          (DEGREES OF FREEDOM PLUS MAX NO. OF ANY LAGRANGE MULTIPLIER
           VARIABLES. INCLUDE *PRINT,SOLVE=YES TO GET THE ACTUAL NUMBER.)



                              END OF USER INPUT PROCESSING



     JOB TIME SUMMARY
       USER TIME (SEC)      =   1.6300    
       SYSTEM TIME (SEC)    =  9.00000E-02
       TOTAL CPU TIME (SEC) =   1.7200    
       WALLCLOCK TIME (SEC) =          1
1

   Abaqus 6.9-EF1                                  Date 09-Oct-2015   Time 17:27:27
   For use at UNIVERSITE DE SAVOIE under license from Dassault Systemes or its subsidiary.

                                                                                               STEP    1  INCREMENT    1
                                                                                          TIME COMPLETED IN THIS STEP   0.00    


                        S T E P       1     S T A T I C   A N A L Y S I S


                                                                                          

     AUTOMATIC TIME CONTROL WITH -
          A SUGGESTED INITIAL TIME INCREMENT OF                2.000E-02
          AND A TOTAL TIME PERIOD OF                            1.00    
          THE MINIMUM TIME INCREMENT ALLOWED IS                1.000E-08
          THE MAXIMUM TIME INCREMENT ALLOWED IS                2.000E-02

     LINEAR EQUATION SOLVER TYPE         DIRECT SPARSE

          LARGE DISPLACEMENT THEORY WILL BE USED
  
                   M E M O R Y   E S T I M A T E
  
 PROCESS      FLOATING PT       MINIMUM MEMORY        MEMORY TO
              OPERATIONS           REQUIRED          MINIMIZE I/O
             PER ITERATION         (MBYTES)           (MBYTES)
  
     1          3.02E+08               19                 38
  
 NOTE:
      (1) SINCE ABAQUS DOES NOT PRE-ALLOCATE MEMORY AND ONLY ALLOCATES MEMORY AS NEEDED DURING THE ANALYSIS,
          THE MEMORY REQUIREMENT PRINTED HERE CAN ONLY BE VIEWED AS A GENERAL GUIDELINE BASED ON THE BEST
          KNOWLEDGE AVAILABLE AT THE BEGINNING OF A STEP BEFORE THE SOLUTION PROCESS HAS BEGUN.
      (2) THE ESTIMATE IS NORMALLY UPDATED AT THE BEGINNING OF EVERY STEP. IT IS THE MAXIMUM VALUE OF THE
          ESTIMATE FROM THE CURRENT STEP TO THE LAST STEP OF THE ANALYSIS, WITH UNSYMMETRIC SOLUTION TAKEN
          INTO ACCOUNT IF APPLICABLE. 
      (3) SINCE THE ESTIMATE IS BASED ON THE ACTIVE DEGREES OF FREEDOM IN THE FIRST ITERATION OF THE 
          CURRENT STEP, THE MEMORY ESTIMATE MIGHT BE SIGNIFICANTLY DIFFERENT THAN ACTUAL USAGE FOR 
          PROBLEMS WITH SUBSTANTIAL CHANGES IN ACTIVE DEGREES OF FREEDOM BETWEEN STEPS (OR EVEN WITHIN
          THE SAME STEP). EXAMPLES ARE: PROBLEMS WITH SIGNIFICANT CONTACT CHANGES, PROBLEMS WITH MODEL
          CHANGE, PROBLEMS WITH BOTH STATIC STEP AND STEADY STATE DYNAMIC PROCEDURES WHERE ACOUSTIC 
          ELEMENTS WILL ONLY BE ACTIVATED IN THE STEADY STATE DYNAMIC STEPS.
      (4) FOR MULTI-PROCESS EXECUTION, THE ESTIMATED VALUE OF FLOATING POINT OPERATIONS FOR EACH PROCESS
          IS BASED ON AN INITIAL SCHEDULING OF OPERATIONS AND MIGHT NOT REFLECT THE ACTUAL FLOATING 
          POINT OPERATIONS COMPLETED ON EACH PROCESS. OPERATIONS ARE DYNAMICALY BALANCED DURING EXECUTION, 
          SO THE ACTUAL BALANCE OF OPERATIONS BETWEEN PROCESSES IS EXPECTED TO BE BETTER THAN THE ESTIMATE
          PRINTED HERE.
      (5) THE UPPER LIMIT OF MEMORY THAT CAN BE ALLOCATED BY ABAQUS WILL IN GENERAL DEPEND ON THE VALUE OF
          THE "MEMORY" PARAMETER AND THE AMOUNT OF PHYSICAL MEMORY AVAILABLE ON THE MACHINE. PLEASE SEE
          THE "ABAQUS ANALYSIS USER'S MANUAL" FOR MORE DETAILS. THE ACTUAL USAGE OF MEMORY AND OF DISK
          SPACE FOR SCRATCH DATA WILL DEPEND ON THIS UPPER LIMIT AS WELL AS THE MEMORY REQUIRED TO MINIMIZE
          I/O. IF THE MEMORY UPPER LIMIT IS GREATER THAN THE MEMORY REQUIRED TO MINIMIZE I/O, THEN THE ACTUAL
          MEMORY USAGE WILL BE CLOSE TO THE ESTIMATED "MEMORY TO MINIMIZE I/O" VALUE, AND THE SCRATCH DISK
          USAGE WILL BE CLOSE-TO-ZERO; OTHERWISE, THE ACTUAL MEMORY USED WILL BE CLOSE TO THE PREVIOUSLY
          MENTIONED MEMORY LIMIT, AND THE SCRATCH DISK USAGE WILL BE ROUGHLY PROPORTIONAL TO THE DIFFERENCE
          BETWEEN THE ESTIMATED "MEMORY TO MINIMIZE I/O" AND THE MEMORY UPPER LIMIT. HOWEVER ACCURATE
          ESTIMATE OF THE SCRATCH DISK SPACE IS NOT POSSIBLE.
      (6) USING "*RESTART, WRITE" CAN GENERATE A LARGE AMOUNT OF DATA WRITTEN IN THE WORK DIRECTORY.


          THE ANALYSIS HAS BEEN COMPLETED



                              ANALYSIS COMPLETE



     JOB TIME SUMMARY
       USER TIME (SEC)      =   17.400    
       SYSTEM TIME (SEC)    =  0.37000    
       TOTAL CPU TIME (SEC) =   17.770    
       WALLCLOCK TIME (SEC) =         17
