**----------------------------------
**DISTRIBUTED MECHANICAL PROPERTIES
**----------------------------------
**HEADER
*Preprint, echo=NO, model=NO, history=NO, contact=NO
**----------------------------------
** PART "pSAMPLE" DEFINITION
*Part, name = pSample
**----------------------------------
** NODES
**----------------------------------
*NODE, NSET=ALLNODES
  1, 0.0, 0.0, 0.0
  2, 0.20000000298, 0.0, 0.0
  3, 0.40000000596, 0.0, 0.0
  4, 0.600000023842, 0.0, 0.0
  5, 0.800000011921, 0.0, 0.0
  6, 1.0, 0.0, 0.0
  7, 0.0, 0.20000000298, 0.0
  8, 0.20000000298, 0.20000000298, 0.0
  9, 0.40000000596, 0.20000000298, 0.0
  10, 0.600000023842, 0.20000000298, 0.0
  11, 0.800000011921, 0.20000000298, 0.0
  12, 1.0, 0.20000000298, 0.0
  13, 0.0, 0.40000000596, 0.0
  14, 0.20000000298, 0.40000000596, 0.0
  15, 0.40000000596, 0.40000000596, 0.0
  16, 0.600000023842, 0.40000000596, 0.0
  17, 0.800000011921, 0.40000000596, 0.0
  18, 1.0, 0.40000000596, 0.0
  19, 0.0, 0.600000023842, 0.0
  20, 0.20000000298, 0.600000023842, 0.0
** ... 196 like lines cut
**----------------------------------
** NODE SETS
**----------------------------------
*NSET, NSET=TOPLEFT
31,67,103,139,175,211,
*NSET, NSET=RIGHT
6,12,18,24,30,36,42,48,54,
60,66,72,78,84,90,96,102,108,
114,120,126,132,138,144,150,156,162,
168,174,180,186,192,198,204,210,216,

*NSET, NSET=BOTTOMLEFT
1,
*NSET, NSET=BOTTOMRIGHT
6,
*NSET, NSET=BOTTOM
1,2,3,4,5,6,37,38,39,
40,41,42,73,74,75,76,77,78,
109,110,111,112,113,114,145,146,147,
148,149,150,181,182,183,184,185,186,

*NSET, NSET=TOP
31,32,33,34,35,36,67,68,69,
70,71,72,103,104,105,106,107,108,
139,140,141,142,143,144,175,176,177,
178,179,180,211,212,213,214,215,216,

*NSET, NSET=TOPRIGHT
36,72,108,144,180,216,
*NSET, NSET=LEFT
1,7,13,19,25,31,37,43,49,
55,61,67,73,79,85,91,97,103,
109,115,121,127,133,139,145,151,157,
163,169,175,181,187,193,199,205,211,

**----------------------------------
** ELEMENTS
**----------------------------------
*ELEMENT, TYPE=C3D8, ELSET=C3D8_ELEMENTS
  1, 1, 2, 8, 7, 37, 38, 44, 43, 
  2, 2, 3, 9, 8, 38, 39, 45, 44, 
  3, 3, 4, 10, 9, 39, 40, 46, 45, 
  4, 4, 5, 11, 10, 40, 41, 47, 46, 
  5, 5, 6, 12, 11, 41, 42, 48, 47, 
  6, 7, 8, 14, 13, 43, 44, 50, 49, 
  7, 8, 9, 15, 14, 44, 45, 51, 50, 
  8, 9, 10, 16, 15, 45, 46, 52, 51, 
  9, 10, 11, 17, 16, 46, 47, 53, 52, 
  10, 11, 12, 18, 17, 47, 48, 54, 53, 
  11, 13, 14, 20, 19, 49, 50, 56, 55, 
  12, 14, 15, 21, 20, 50, 51, 57, 56, 
  13, 15, 16, 22, 21, 51, 52, 58, 57, 
  14, 16, 17, 23, 22, 52, 53, 59, 58, 
  15, 17, 18, 24, 23, 53, 54, 60, 59, 
  16, 19, 20, 26, 25, 55, 56, 62, 61, 
  17, 20, 21, 27, 26, 56, 57, 63, 62, 
  18, 21, 22, 28, 27, 57, 58, 64, 63, 
  19, 22, 23, 29, 28, 58, 59, 65, 64, 
  20, 23, 24, 30, 29, 59, 60, 66, 65, 
** ... 105 like lines cut
**----------------------------------
** ELEMENT SETS
**----------------------------------
*ELSET, ELSET=ALLELEMENTS
  1, 2, 3, 4, 5, 6, 7, 8, 9,
 10, 11, 12, 13, 14, 15, 16, 17, 18,
 19, 20, 21, 22, 23, 24, 25, 26, 27,
 28, 29, 30, 31, 32, 33, 34, 35, 36,
 37, 38, 39, 40, 41, 42, 43, 44, 45,
 46, 47, 48, 49, 50, 51, 52, 53, 54,
 55, 56, 57, 58, 59, 60, 61, 62, 63,
 64, 65, 66, 67, 68, 69, 70, 71, 72,
 73, 74, 75, 76, 77, 78, 79, 80, 81,
 82, 83, 84, 85, 86, 87, 88, 89, 90,
 91, 92, 93, 94, 95, 96, 97, 98, 99,
 100, 101, 102, 103, 104, 105, 106, 107, 108,
 109, 110, 111, 112, 113, 114, 115, 116, 117,
 118, 119, 120, 121, 122, 123, 124, 125,
**----------------------------------
** ELEMENT SURFACES
**----------------------------------
*Solid Section, elset=Elset1, material=mat_1
*Elset, Elset=Elset1
1,
*Solid Section, elset=Elset2, material=mat_2
*Elset, Elset=Elset2
2,
*Solid Section, elset=Elset3, material=mat_3
*Elset, Elset=Elset3
3,
*Solid Section, elset=Elset4, material=mat_4
*Elset, Elset=Elset4
4,
*Solid Section, elset=Elset5, material=mat_5
*Elset, Elset=Elset5
5,
*Solid Section, elset=Elset6, material=mat_6
*Elset, Elset=Elset6
6,
*Solid Section, elset=Elset7, material=mat_7
*Elset, Elset=Elset7
7,
*Solid Section, elset=Elset8, material=mat_8
*Elset, Elset=Elset8
8,
*Solid Section, elset=Elset9, material=mat_9
*Elset, Elset=Elset9
9,
*Solid Section, elset=Elset10, material=mat_10
*Elset, Elset=Elset10
10,
*Solid Section, elset=Elset11, material=mat_11
*Elset, Elset=Elset11
11,
*Solid Section, elset=Elset12, material=mat_12
*Elset, Elset=Elset12
12,
*Solid Section, elset=Elset13, material=mat_13
*Elset, Elset=Elset13
13,
*Solid Section, elset=Elset14, material=mat_14
*Elset, Elset=Elset14
14,
*Solid Section, elset=Elset15, material=mat_15
*Elset, Elset=Elset15
15,
*Solid Section, elset=Elset16, material=mat_16
*Elset, Elset=Elset16
16,
*Solid Section, elset=Elset17, material=mat_17
*Elset, Elset=Elset17
17,
*Solid Section, elset=Elset18, material=mat_18
*Elset, Elset=Elset18
18,
*Solid Section, elset=Elset19, material=mat_19
*Elset, Elset=Elset19
19,
*Solid Section, elset=Elset20, material=mat_20
*Elset, Elset=Elset20
20,
** ... 315 like lines cut
*EQUATION
2
12, 1, 1, 6, 1, -1
2
18, 1, 1, 6, 1, -1
2
24, 1, 1, 6, 1, -1
2
30, 1, 1, 6, 1, -1
2
36, 1, 1, 6, 1, -1
2
42, 1, 1, 6, 1, -1
2
48, 1, 1, 6, 1, -1
2
54, 1, 1, 6, 1, -1
2
60, 1, 1, 6, 1, -1
2
66, 1, 1, 6, 1, -1
** ... 120 like lines cut
*End part
**----------------------------------
** ASSEMBLY
*Assembly, name = Assembly
*Instance, name=iSample, part=pSample
*End Instance
*End Assembly
**----------------------------------
** MATERIALS
** <Bilinear instance: 1 samples>
*MATERIAL, NAME=mat_1
*ELASTIC
  123000.0, 0.3
*PLASTIC
  414.794337715, 0.
 3280.84465628, 10.140237596
** <Bilinear instance: 1 samples>
*MATERIAL, NAME=mat_2
*ELASTIC
  123000.0, 0.3
*PLASTIC
  251.08220049, 0.
 3280.84465628, 10.719459795
** <Bilinear instance: 1 samples>
*MATERIAL, NAME=mat_3
*ELASTIC
  123000.0, 0.3
*PLASTIC
  141.441908975, 0.
 3280.84465628, 11.107372945
** <Bilinear instance: 1 samples>
*MATERIAL, NAME=mat_4
*ELASTIC
  123000.0, 0.3
*PLASTIC
  651.881484237, 0.
 3280.84465628, 9.3014107336
** <Bilinear instance: 1 samples>
*MATERIAL, NAME=mat_5
*ELASTIC
  123000.0, 0.3
*PLASTIC
  118.492360648, 0.
 3280.84465628, 11.188569660
** <Bilinear instance: 1 samples>
*MATERIAL, NAME=mat_6
*ELASTIC
  123000.0, 0.3
*PLASTIC
  294.122261822, 0.
 3280.84465628, 10.567181782
** <Bilinear instance: 1 samples>
*MATERIAL, NAME=mat_7
*ELASTIC
  123000.0, 0.3
*PLASTIC
  168.212183379, 0.
 3280.84465628, 11.012658298
** <Bilinear instance: 1 samples>
*MATERIAL, NAME=mat_8
*ELASTIC
  123000.0, 0.3
*PLASTIC
  276.024386914, 0.
 3280.84465628, 10.631213020
** <Bilinear instance: 1 samples>
*MATERIAL, NAME=mat_9
*ELASTIC
  123000.0, 0.3
*PLASTIC
  547.751072781, 0.
 3280.84465628, 9.6698296362
** <Bilinear instance: 1 samples>
*MATERIAL, NAME=mat_10
*ELASTIC
  123000.0, 0.3
*PLASTIC
  290.959307804, 0.
 3280.84465628, 10.57837248
** <Bilinear instance: 1 samples>
*MATERIAL, NAME=mat_11
*ELASTIC
  123000.0, 0.3
*PLASTIC
  469.615221855, 0.
 3280.84465628, 9.9462784089
** <Bilinear instance: 1 samples>
*MATERIAL, NAME=mat_12
*ELASTIC
  123000.0, 0.3
*PLASTIC
  709.91450869, 0.
 3280.84465628, 9.0960868240
** <Bilinear instance: 1 samples>
*MATERIAL, NAME=mat_13
*ELASTIC
  123000.0, 0.3
*PLASTIC
  387.091764391, 0.
 3280.84465628, 10.238250765
** <Bilinear instance: 1 samples>
*MATERIAL, NAME=mat_14
*ELASTIC
  123000.0, 0.3
*PLASTIC
  112.594545114, 0.
 3280.84465628, 11.209436444
** <Bilinear instance: 1 samples>
*MATERIAL, NAME=mat_15
*ELASTIC
  123000.0, 0.3
*PLASTIC
  240.58793617, 0.
 3280.84465628, 10.756589057
** <Bilinear instance: 1 samples>
*MATERIAL, NAME=mat_16
*ELASTIC
  123000.0, 0.3
*PLASTIC
  593.169826194, 0.
 3280.84465628, 9.509135684
** <Bilinear instance: 1 samples>
*MATERIAL, NAME=mat_17
*ELASTIC
  123000.0, 0.3
*PLASTIC
  109.391602475, 0.
 3280.84465628, 11.220768624
** <Bilinear instance: 1 samples>
*MATERIAL, NAME=mat_18
*ELASTIC
  123000.0, 0.3
*PLASTIC
  111.013091347, 0.
 3280.84465628, 11.215031711
** <Bilinear instance: 1 samples>
*MATERIAL, NAME=mat_19
*ELASTIC
  123000.0, 0.3
*PLASTIC
  405.958687201, 0.
 3280.84465628, 10.17149859
** <Bilinear instance: 1 samples>
*MATERIAL, NAME=mat_20
*ELASTIC
  123000.0, 0.3
*PLASTIC
  299.663126272, 0.
 3280.84465628, 10.547577910
** <Bilinear instance: 1 samples>
*MATERIAL, NAME=mat_21
*ELASTIC
  123000.0, 0.3
*PLASTIC
  778.371581715, 0.
 3280.84465628, 8.853882079
** <Bilinear instance: 1 samples>
*MATERIAL, NAME=mat_22
*ELASTIC
  123000.0, 0.3
*PLASTIC
  246.547834386, 0.
 3280.84465628, 10.735502622
** <Bilinear instance: 1 samples>
*MATERIAL, NAME=mat_23
*ELASTIC
  123000.0, 0.3
*PLASTIC
  290.132598423, 0.
 3280.84465628, 10.581297422
** <Bilinear instance: 1 samples>
*MATERIAL, NAME=mat_24
*ELASTIC
  123000.0, 0.3
*PLASTIC
  831.363069235, 0.
 3280.84465628, 8.6663953941
** <Bilinear instance: 1 samples>
*MATERIAL, NAME=mat_25
*ELASTIC
  123000.0, 0.3
*PLASTIC
  593.249494378, 0.
 3280.84465628, 9.5088538144
** <Bilinear instance: 1 samples>
*MATERIAL, NAME=mat_26
*ELASTIC
  123000.0, 0.3
*PLASTIC
  309.181998282, 0.
 3280.84465628, 10.513899638
** <Bilinear instance: 1 samples>
*MATERIAL, NAME=mat_27
*ELASTIC
  123000.0, 0.3
*PLASTIC
  521.163706308, 0.
 3280.84465628, 9.7638971448
** <Bilinear instance: 1 samples>
*MATERIAL, NAME=mat_28
*ELASTIC
  123000.0, 0.3
*PLASTIC
  256.045118701, 0.
 3280.84465628, 10.701900728
** <Bilinear instance: 1 samples>
*MATERIAL, NAME=mat_29
*ELASTIC
  123000.0, 0.3
*PLASTIC
  303.801238844, 0.
 3280.84465628, 10.532937049
** <Bilinear instance: 1 samples>
*MATERIAL, NAME=mat_30
*ELASTIC
  123000.0, 0.3
*PLASTIC
  364.658472001, 0.
 3280.84465628, 10.317620940
** <Bilinear instance: 1 samples>
*MATERIAL, NAME=mat_31
*ELASTIC
  123000.0, 0.3
*PLASTIC
  507.938164903, 0.
 3280.84465628, 9.8106898097
** <Bilinear instance: 1 samples>
*MATERIAL, NAME=mat_32
*ELASTIC
  123000.0, 0.3
*PLASTIC
  180.253545509, 0.
 3280.84465628, 10.970055322
** <Bilinear instance: 1 samples>
*MATERIAL, NAME=mat_33
*ELASTIC
  123000.0, 0.3
*PLASTIC
  83.7411563643, 0.
 3280.84465628, 11.311521259
** <Bilinear instance: 1 samples>
*MATERIAL, NAME=mat_34
*ELASTIC
  123000.0, 0.3
*PLASTIC
  187.775476661, 0.
 3280.84465628, 10.943442332
** <Bilinear instance: 1 samples>
*MATERIAL, NAME=mat_35
*ELASTIC
  123000.0, 0.3
*PLASTIC
  587.415011635, 0.
 3280.84465628, 9.5294965229
** <Bilinear instance: 1 samples>
*MATERIAL, NAME=mat_36
*ELASTIC
  123000.0, 0.3
*PLASTIC
  353.006216148, 0.
 3280.84465628, 10.358847237
** <Bilinear instance: 1 samples>
*MATERIAL, NAME=mat_37
*ELASTIC
  123000.0, 0.3
*PLASTIC
  443.803035608, 0.
 3280.84465628, 10.03760328
** <Bilinear instance: 1 samples>
*MATERIAL, NAME=mat_38
*ELASTIC
  123000.0, 0.3
*PLASTIC
  260.222170919, 0.
 3280.84465628, 10.687122096
** <Bilinear instance: 1 samples>
*MATERIAL, NAME=mat_39
*ELASTIC
  123000.0, 0.3
*PLASTIC
  463.729826266, 0.
 3280.84465628, 9.967101249
** <Bilinear instance: 1 samples>
*MATERIAL, NAME=mat_40
*ELASTIC
  123000.0, 0.3
*PLASTIC
  255.979001549, 0.
 3280.84465628, 10.702134654
** <Bilinear instance: 1 samples>
*MATERIAL, NAME=mat_41
*ELASTIC
  123000.0, 0.3
*PLASTIC
  397.379066062, 0.
 3280.84465628, 10.201853748
** <Bilinear instance: 1 samples>
*MATERIAL, NAME=mat_42
*ELASTIC
  123000.0, 0.3
*PLASTIC
  384.846603547, 0.
 3280.84465628, 10.246194263
** <Bilinear instance: 1 samples>
*MATERIAL, NAME=mat_43
*ELASTIC
  123000.0, 0.3
*PLASTIC
  589.205164197, 0.
 3280.84465628, 9.5231628685
** <Bilinear instance: 1 samples>
*MATERIAL, NAME=mat_44
*ELASTIC
  123000.0, 0.3
*PLASTIC
  400.817942231, 0.
 3280.84465628, 10.189686822
** <Bilinear instance: 1 samples>
*MATERIAL, NAME=mat_45
*ELASTIC
  123000.0, 0.3
*PLASTIC
  762.57649007, 0.
 3280.84465628, 8.9097659489
** <Bilinear instance: 1 samples>
*MATERIAL, NAME=mat_46
*ELASTIC
  123000.0, 0.3
*PLASTIC
  294.205678106, 0.
 3280.84465628, 10.566886651
** <Bilinear instance: 1 samples>
*MATERIAL, NAME=mat_47
*ELASTIC
  123000.0, 0.3
*PLASTIC
  136.881562141, 0.
 3280.84465628, 11.123507693
** <Bilinear instance: 1 samples>
*MATERIAL, NAME=mat_48
*ELASTIC
  123000.0, 0.3
*PLASTIC
  1262.69035998, 0.
 3280.84465628, 7.1403366290
** <Bilinear instance: 1 samples>
*MATERIAL, NAME=mat_49
*ELASTIC
  123000.0, 0.3
*PLASTIC
  337.064145071, 0.
 3280.84465628, 10.415251128
** <Bilinear instance: 1 samples>
*MATERIAL, NAME=mat_50
*ELASTIC
  123000.0, 0.3
*PLASTIC
  245.060042169, 0.
 3280.84465628, 10.740766510
** <Bilinear instance: 1 samples>
*MATERIAL, NAME=mat_51
*ELASTIC
  123000.0, 0.3
*PLASTIC
  740.420392061, 0.
 3280.84465628, 8.9881553954
** <Bilinear instance: 1 samples>
*MATERIAL, NAME=mat_52
*ELASTIC
  123000.0, 0.3
*PLASTIC
  606.921818141, 0.
 3280.84465628, 9.4604804099
** <Bilinear instance: 1 samples>
*MATERIAL, NAME=mat_53
*ELASTIC
  123000.0, 0.3
*PLASTIC
  345.419134397, 0.
 3280.84465628, 10.385690734
** <Bilinear instance: 1 samples>
*MATERIAL, NAME=mat_54
*ELASTIC
  123000.0, 0.3
*PLASTIC
  242.055449371, 0.
 3280.84465628, 10.751396918
** <Bilinear instance: 1 samples>
*MATERIAL, NAME=mat_55
*ELASTIC
  123000.0, 0.3
*PLASTIC
  157.345974178, 0.
 3280.84465628, 11.051103521
** <Bilinear instance: 1 samples>
*MATERIAL, NAME=mat_56
*ELASTIC
  123000.0, 0.3
*PLASTIC
  438.325251497, 0.
 3280.84465628, 10.056983978
** <Bilinear instance: 1 samples>
*MATERIAL, NAME=mat_57
*ELASTIC
  123000.0, 0.3
*PLASTIC
  288.938529444, 0.
 3280.84465628, 10.585522101
** <Bilinear instance: 1 samples>
*MATERIAL, NAME=mat_58
*ELASTIC
  123000.0, 0.3
*PLASTIC
  626.359088163, 0.
 3280.84465628, 9.3917103206
** <Bilinear instance: 1 samples>
*MATERIAL, NAME=mat_59
*ELASTIC
  123000.0, 0.3
*PLASTIC
  378.882083024, 0.
 3280.84465628, 10.267297052
** <Bilinear instance: 1 samples>
*MATERIAL, NAME=mat_60
*ELASTIC
  123000.0, 0.3
*PLASTIC
  872.929338816, 0.
 3280.84465628, 8.5193317341
** <Bilinear instance: 1 samples>
*MATERIAL, NAME=mat_61
*ELASTIC
  123000.0, 0.3
*PLASTIC
  532.136504772, 0.
 3280.84465628, 9.725074803
** <Bilinear instance: 1 samples>
*MATERIAL, NAME=mat_62
*ELASTIC
  123000.0, 0.3
*PLASTIC
  289.356772697, 0.
 3280.84465628, 10.584042334
** <Bilinear instance: 1 samples>
*MATERIAL, NAME=mat_63
*ELASTIC
  123000.0, 0.3
*PLASTIC
  139.420314193, 0.
 3280.84465628, 11.114525454
** <Bilinear instance: 1 samples>
*MATERIAL, NAME=mat_64
*ELASTIC
  123000.0, 0.3
*PLASTIC
  93.818650214, 0.
 3280.84465628, 11.275866553
** <Bilinear instance: 1 samples>
*MATERIAL, NAME=mat_65
*ELASTIC
  123000.0, 0.3
*PLASTIC
  309.673201081, 0.
 3280.84465628, 10.512161736
** <Bilinear instance: 1 samples>
*MATERIAL, NAME=mat_66
*ELASTIC
  123000.0, 0.3
*PLASTIC
  301.799657249, 0.
 3280.84465628, 10.540018751
** <Bilinear instance: 1 samples>
*MATERIAL, NAME=mat_67
*ELASTIC
  123000.0, 0.3
*PLASTIC
  611.854376413, 0.
 3280.84465628, 9.4430287579
** <Bilinear instance: 1 samples>
*MATERIAL, NAME=mat_68
*ELASTIC
  123000.0, 0.3
*PLASTIC
  666.232488869, 0.
 3280.84465628, 9.2506361202
** <Bilinear instance: 1 samples>
*MATERIAL, NAME=mat_69
*ELASTIC
  123000.0, 0.3
*PLASTIC
  378.903781485, 0.
 3280.84465628, 10.267220282
** <Bilinear instance: 1 samples>
*MATERIAL, NAME=mat_70
*ELASTIC
  123000.0, 0.3
*PLASTIC
  722.950938309, 0.
 3280.84465628, 9.0499632466
** <Bilinear instance: 1 samples>
*MATERIAL, NAME=mat_71
*ELASTIC
  123000.0, 0.3
*PLASTIC
  379.712800378, 0.
 3280.84465628, 10.264357930
** <Bilinear instance: 1 samples>
*MATERIAL, NAME=mat_72
*ELASTIC
  123000.0, 0.3
*PLASTIC
  127.627287723, 0.
 3280.84465628, 11.156249805
** <Bilinear instance: 1 samples>
*MATERIAL, NAME=mat_73
*ELASTIC
  123000.0, 0.3
*PLASTIC
  212.288891458, 0.
 3280.84465628, 10.856712574
** <Bilinear instance: 1 samples>
*MATERIAL, NAME=mat_74
*ELASTIC
  123000.0, 0.3
*PLASTIC
  461.8225798, 0.
 3280.84465628, 9.9738491886
** <Bilinear instance: 1 samples>
*MATERIAL, NAME=mat_75
*ELASTIC
  123000.0, 0.3
*PLASTIC
  212.699428849, 0.
 3280.84465628, 10.855260071
** <Bilinear instance: 1 samples>
*MATERIAL, NAME=mat_76
*ELASTIC
  123000.0, 0.3
*PLASTIC
  246.725738741, 0.
 3280.84465628, 10.734873187
** <Bilinear instance: 1 samples>
*MATERIAL, NAME=mat_77
*ELASTIC
  123000.0, 0.3
*PLASTIC
  295.134343876, 0.
 3280.84465628, 10.563600982
** <Bilinear instance: 1 samples>
*MATERIAL, NAME=mat_78
*ELASTIC
  123000.0, 0.3
*PLASTIC
  326.109764781, 0.
 3280.84465628, 10.454008305
** <Bilinear instance: 1 samples>
*MATERIAL, NAME=mat_79
*ELASTIC
  123000.0, 0.3
*PLASTIC
  667.272921517, 0.
 3280.84465628, 9.2469550145
** <Bilinear instance: 1 samples>
*MATERIAL, NAME=mat_80
*ELASTIC
  123000.0, 0.3
*PLASTIC
  388.24326265, 0.
 3280.84465628, 10.234176703
** <Bilinear instance: 1 samples>
*MATERIAL, NAME=mat_81
*ELASTIC
  123000.0, 0.3
*PLASTIC
  287.75600835, 0.
 3280.84465628, 10.589705923
** <Bilinear instance: 1 samples>
*MATERIAL, NAME=mat_82
*ELASTIC
  123000.0, 0.3
*PLASTIC
  580.047797091, 0.
 3280.84465628, 9.5555621176
** <Bilinear instance: 1 samples>
*MATERIAL, NAME=mat_83
*ELASTIC
  123000.0, 0.3
*PLASTIC
  451.990769482, 0.
 3280.84465628, 10.008634653
** <Bilinear instance: 1 samples>
*MATERIAL, NAME=mat_84
*ELASTIC
  123000.0, 0.3
*PLASTIC
  303.175749552, 0.
 3280.84465628, 10.53515006
** <Bilinear instance: 1 samples>
*MATERIAL, NAME=mat_85
*ELASTIC
  123000.0, 0.3
*PLASTIC
  461.727951273, 0.
 3280.84465628, 9.9741839893
** <Bilinear instance: 1 samples>
*MATERIAL, NAME=mat_86
*ELASTIC
  123000.0, 0.3
*PLASTIC
  187.844388831, 0.
 3280.84465628, 10.943198517
** <Bilinear instance: 1 samples>
*MATERIAL, NAME=mat_87
*ELASTIC
  123000.0, 0.3
*PLASTIC
  581.238957516, 0.
 3280.84465628, 9.5513477290
** <Bilinear instance: 1 samples>
*MATERIAL, NAME=mat_88
*ELASTIC
  123000.0, 0.3
*PLASTIC
  477.626509316, 0.
 3280.84465628, 9.9179340502
** <Bilinear instance: 1 samples>
*MATERIAL, NAME=mat_89
*ELASTIC
  123000.0, 0.3
*PLASTIC
  57.5767906765, 0.
 3280.84465628, 11.404092168
** <Bilinear instance: 1 samples>
*MATERIAL, NAME=mat_90
*ELASTIC
  123000.0, 0.3
*PLASTIC
  186.517731239, 0.
 3280.84465628, 10.947892302
** <Bilinear instance: 1 samples>
*MATERIAL, NAME=mat_91
*ELASTIC
  123000.0, 0.3
*PLASTIC
  549.365656829, 0.
 3280.84465628, 9.6641171524
** <Bilinear instance: 1 samples>
*MATERIAL, NAME=mat_92
*ELASTIC
  123000.0, 0.3
*PLASTIC
  547.450466596, 0.
 3280.84465628, 9.670893196
** <Bilinear instance: 1 samples>
*MATERIAL, NAME=mat_93
*ELASTIC
  123000.0, 0.3
*PLASTIC
  426.690641904, 0.
 3280.84465628, 10.098147842
** <Bilinear instance: 1 samples>
*MATERIAL, NAME=mat_94
*ELASTIC
  123000.0, 0.3
*PLASTIC
  667.623305624, 0.
 3280.84465628, 9.2457153370
** <Bilinear instance: 1 samples>
*MATERIAL, NAME=mat_95
*ELASTIC
  123000.0, 0.3
*PLASTIC
  279.058214555, 0.
 3280.84465628, 10.620479178
** <Bilinear instance: 1 samples>
*MATERIAL, NAME=mat_96
*ELASTIC
  123000.0, 0.3
*PLASTIC
  249.843603794, 0.
 3280.84465628, 10.723842016
** <Bilinear instance: 1 samples>
*MATERIAL, NAME=mat_97
*ELASTIC
  123000.0, 0.3
*PLASTIC
  264.855203245, 0.
 3280.84465628, 10.670730183
** <Bilinear instance: 1 samples>
*MATERIAL, NAME=mat_98
*ELASTIC
  123000.0, 0.3
*PLASTIC
  617.303860134, 0.
 3280.84465628, 9.4237481963
** <Bilinear instance: 1 samples>
*MATERIAL, NAME=mat_99
*ELASTIC
  123000.0, 0.3
*PLASTIC
  315.035727369, 0.
 3280.84465628, 10.493188835
** <Bilinear instance: 1 samples>
*MATERIAL, NAME=mat_100
*ELASTIC
  123000.0, 0.3
*PLASTIC
  553.360265308, 0.
 3280.84465628, 9.6499840164
** <Bilinear instance: 1 samples>
*MATERIAL, NAME=mat_101
*ELASTIC
  123000.0, 0.3
*PLASTIC
  1002.32704083, 0.
 3280.84465628, 8.0615158213
** <Bilinear instance: 1 samples>
*MATERIAL, NAME=mat_102
*ELASTIC
  123000.0, 0.3
*PLASTIC
  604.955056925, 0.
 3280.84465628, 9.4674389151
** <Bilinear instance: 1 samples>
*MATERIAL, NAME=mat_103
*ELASTIC
  123000.0, 0.3
*PLASTIC
  97.7893009934, 0.
 3280.84465628, 11.261818180
** <Bilinear instance: 1 samples>
*MATERIAL, NAME=mat_104
*ELASTIC
  123000.0, 0.3
*PLASTIC
  427.672385402, 0.
 3280.84465628, 10.094674382
** <Bilinear instance: 1 samples>
*MATERIAL, NAME=mat_105
*ELASTIC
  123000.0, 0.3
*PLASTIC
  631.826364191, 0.
 3280.84465628, 9.3723668089
** <Bilinear instance: 1 samples>
*MATERIAL, NAME=mat_106
*ELASTIC
  123000.0, 0.3
*PLASTIC
  162.836009138, 0.
 3280.84465628, 11.031679487
** <Bilinear instance: 1 samples>
*MATERIAL, NAME=mat_107
*ELASTIC
  123000.0, 0.3
*PLASTIC
  732.892770419, 0.
 3280.84465628, 9.0147885188
** <Bilinear instance: 1 samples>
*MATERIAL, NAME=mat_108
*ELASTIC
  123000.0, 0.3
*PLASTIC
  301.568693284, 0.
 3280.84465628, 10.540835914
** <Bilinear instance: 1 samples>
*MATERIAL, NAME=mat_109
*ELASTIC
  123000.0, 0.3
*PLASTIC
  379.159940544, 0.
 3280.84465628, 10.266313977
** <Bilinear instance: 1 samples>
*MATERIAL, NAME=mat_110
*ELASTIC
  123000.0, 0.3
*PLASTIC
  444.061250699, 0.
 3280.84465628, 10.036689710
** <Bilinear instance: 1 samples>
*MATERIAL, NAME=mat_111
*ELASTIC
  123000.0, 0.3
*PLASTIC
  246.796316125, 0.
 3280.84465628, 10.734623481
** <Bilinear instance: 1 samples>
*MATERIAL, NAME=mat_112
*ELASTIC
  123000.0, 0.3
*PLASTIC
  389.143204586, 0.
 3280.84465628, 10.230992661
** <Bilinear instance: 1 samples>
*MATERIAL, NAME=mat_113
*ELASTIC
  123000.0, 0.3
*PLASTIC
  232.740389161, 0.
 3280.84465628, 10.78435409
** <Bilinear instance: 1 samples>
*MATERIAL, NAME=mat_114
*ELASTIC
  123000.0, 0.3
*PLASTIC
  110.352678386, 0.
 3280.84465628, 11.217368287
** <Bilinear instance: 1 samples>
*MATERIAL, NAME=mat_115
*ELASTIC
  123000.0, 0.3
*PLASTIC
  369.43009333, 0.
 3280.84465628, 10.300738691
** <Bilinear instance: 1 samples>
*MATERIAL, NAME=mat_116
*ELASTIC
  123000.0, 0.3
*PLASTIC
  714.881319501, 0.
 3280.84465628, 9.0785139847
** <Bilinear instance: 1 samples>
*MATERIAL, NAME=mat_117
*ELASTIC
  123000.0, 0.3
*PLASTIC
  315.389525868, 0.
 3280.84465628, 10.491937077
** <Bilinear instance: 1 samples>
*MATERIAL, NAME=mat_118
*ELASTIC
  123000.0, 0.3
*PLASTIC
  284.374163054, 0.
 3280.84465628, 10.601671071
** <Bilinear instance: 1 samples>
*MATERIAL, NAME=mat_119
*ELASTIC
  123000.0, 0.3
*PLASTIC
  639.626420389, 0.
 3280.84465628, 9.3447697976
** <Bilinear instance: 1 samples>
*MATERIAL, NAME=mat_120
*ELASTIC
  123000.0, 0.3
*PLASTIC
  795.933729179, 0.
 3280.84465628, 8.7917462729
** <Bilinear instance: 1 samples>
*MATERIAL, NAME=mat_121
*ELASTIC
  123000.0, 0.3
*PLASTIC
  163.812599907, 0.
 3280.84465628, 11.028224257
** <Bilinear instance: 1 samples>
*MATERIAL, NAME=mat_122
*ELASTIC
  123000.0, 0.3
*PLASTIC
  105.183015159, 0.
 3280.84465628, 11.23565882
** <Bilinear instance: 1 samples>
*MATERIAL, NAME=mat_123
*ELASTIC
  123000.0, 0.3
*PLASTIC
  368.658025709, 0.
 3280.84465628, 10.30347030
** <Bilinear instance: 1 samples>
*MATERIAL, NAME=mat_124
*ELASTIC
  123000.0, 0.3
*PLASTIC
  468.326990621, 0.
 3280.84465628, 9.9508362391
** <Bilinear instance: 1 samples>
*MATERIAL, NAME=mat_125
*ELASTIC
  123000.0, 0.3
*PLASTIC
  727.046874673, 0.
 3280.84465628, 9.0354716071
**----------------------------------
** STEPS
*Step, Name=Loading0, Nlgeom=YES, Inc=1000000
*Static
0.01, 1, 1e-08, 0.01
** BOUNDARY CONDITIONS
*Boundary
iSample.Bottom, 2, 2
iSample.BottomLeft, 1, 1
iSample.BottomLeft, 3, 3
iSample.BottomRight, 3, 3
iSample.Top,    2, 2, 0.12
** RESTART OPTIONS 
*Restart, write, frequency=0
** FIELD OUTPUTS
*Output, field, frequency=999999
*Node Output
U
*Element Output, directions=YES
E, PE, EE, PEEQ, S
** HYSTORY OUTPUTS
*Output, history
*Energy Output
ALLPD, ALLSE, ALLWK
*Node Output, nset=iSample.Top
RF2
*Node Output, nset=iSample.TopLeft
U2
*Node Output, nset=iSample.Left
COOR1
*Node Output, nset=iSample.Right
COOR1
*Element Output, elset=iSample.allElements, directions=NO
EVOL
*End Step
  