1

   Abaqus 6.12-1                                  Date 15-mai-2015   Time 14:44:46
   For use at  under license from Dassault Systemes or its subsidiary.



                         The Abaqus Software is a product of:

                           Dassault Systemes Simulia Corp.
                                 Rising Sun Mills
                                 166 Valley Street
                           Providence, RI 02909-2499, USA
 


                   Available for internal use at . 
                   The Abaqus Online Support System is accessible
                   through the "My Support" section of the SIMULIA
                   Home Page at http://www.simulia.com.

                   Support policies for academic licenses are described
                   on the SIMULIA web site at
                   http://www.simulia.com/academics/academic_support.html.
 
                          On machine serv2-ms-symme 
                          you are authorized to run
                          Abaqus/Standard until 25-Feb-2016

                          Your site id is: 200000000053092 


 
                    For assistance or any other information you may
                    obtain contact information for your local office
                    from the world wide web at:

                      http://www.simulia.com/about/locations.html

 
                * * * * * * * * * * * * * * * * * * * * * * * * * * * * * * 
                *                                                         * 
                *                   *****************                     * 
                *                   *  N O T I C E  *                     * 
                *                   *****************                     * 
                *                                                         * 
                *                                                         * 
                *                    Abaqus 6.12-1                        * 
                *                                                         * 
                *          BUILD ID: 2012_03_13-20.21.46 119612           * 
                *                                                         * 
                *                                                         * 
                *  Please make sure you are using release 6.12 manuals    * 
                *  plus the notes accompanying this release.              * 
                *                                                         * 
                *                                                         * 
                *                                                         * 
                *                                                         * 
                *                                                         * 
                *   This program may not be used for commercial purposes  * 
                *           without payment of a commercial fee.          * 
                *                                                         * 
                * * * * * * * * * * * * * * * * * * * * * * * * * * * * * * 


 



     PROCESSING PART, INSTANCE, AND ASSEMBLY INFORMATION
   *******************************************************


     END PROCESSING PART, INSTANCE, AND ASSEMBLY INFORMATION
   ***********************************************************




     OPTIONS BEING PROCESSED
   ***************************


  *Node
  *Element, type=C3D8
  *Nset, nset=ASSEMBLY_ISAMPLE_ALLNODES
  *Nset, nset=ASSEMBLY_ISAMPLE_BOTTOM
  *Nset, nset=ASSEMBLY_ISAMPLE_BOTTOMLEFT
  *Nset, nset=ASSEMBLY_ISAMPLE_BOTTOMRIGHT
  *Nset, nset=ASSEMBLY_ISAMPLE_LEFT
  *Nset, nset=ASSEMBLY_ISAMPLE_NONTRANSFORMED-1
  *Nset, nset=ASSEMBLY_ISAMPLE_RIGHT
  *Nset, nset=ASSEMBLY_ISAMPLE_TOP
  *Nset, nset=ASSEMBLY_ISAMPLE_TOPLEFT
  *Nset, nset=ASSEMBLY_ISAMPLE_TOPRIGHT
  *Elset, elset=ASSEMBLY_ISAMPLE_ALLELEMENTS
  *Elset, elset=ASSEMBLY_ISAMPLE_C3D8_ELEMENTS
  *Elset, elset=ASSEMBLY_ISAMPLE_ELSET1
  *Elset, elset=ASSEMBLY_ISAMPLE_ELSET10
  *Elset, elset=ASSEMBLY_ISAMPLE_ELSET100
  *Elset, elset=ASSEMBLY_ISAMPLE_ELSET1000
  *Elset, elset=ASSEMBLY_ISAMPLE_ELSET1001
  *Elset, elset=ASSEMBLY_ISAMPLE_ELSET1002
  *Elset, elset=ASSEMBLY_ISAMPLE_ELSET1003
  *Elset, elset=ASSEMBLY_ISAMPLE_ELSET1004
  *Elset, elset=ASSEMBLY_ISAMPLE_ELSET1005
  *Elset, elset=ASSEMBLY_ISAMPLE_ELSET1006
  *Elset, elset=ASSEMBLY_ISAMPLE_ELSET1007
  *Elset, elset=ASSEMBLY_ISAMPLE_ELSET1008
  *Elset, elset=ASSEMBLY_ISAMPLE_ELSET1009
  *Elset, elset=ASSEMBLY_ISAMPLE_ELSET101
  *Elset, elset=ASSEMBLY_ISAMPLE_ELSET1010
  *Elset, elset=ASSEMBLY_ISAMPLE_ELSET1011
  *Elset, elset=ASSEMBLY_ISAMPLE_ELSET1012
  *Elset, elset=ASSEMBLY_ISAMPLE_ELSET1013
  *Elset, elset=ASSEMBLY_ISAMPLE_ELSET1014
  *Elset, elset=ASSEMBLY_ISAMPLE_ELSET1015
  *Elset, elset=ASSEMBLY_ISAMPLE_ELSET1016
  *Elset, elset=ASSEMBLY_ISAMPLE_ELSET1017
  *Elset, elset=ASSEMBLY_ISAMPLE_ELSET1018
  *Elset, elset=ASSEMBLY_ISAMPLE_ELSET1019
  *Elset, elset=ASSEMBLY_ISAMPLE_ELSET102
  *Elset, elset=ASSEMBLY_ISAMPLE_ELSET1020
  *Elset, elset=ASSEMBLY_ISAMPLE_ELSET1021
  *Elset, elset=ASSEMBLY_ISAMPLE_ELSET1022
  *Elset, elset=ASSEMBLY_ISAMPLE_ELSET1023
  *Elset, elset=ASSEMBLY_ISAMPLE_ELSET1024
  *Elset, elset=ASSEMBLY_ISAMPLE_ELSET1025
  *Elset, elset=ASSEMBLY_ISAMPLE_ELSET1026
  *Elset, elset=ASSEMBLY_ISAMPLE_ELSET1027
  *Elset, elset=ASSEMBLY_ISAMPLE_ELSET1028
  *Elset, elset=ASSEMBLY_ISAMPLE_ELSET1029
  *Elset, elset=ASSEMBLY_ISAMPLE_ELSET103
  *Elset, elset=ASSEMBLY_ISAMPLE_ELSET1030
  *Elset, elset=ASSEMBLY_ISAMPLE_ELSET1031
  *Elset, elset=ASSEMBLY_ISAMPLE_ELSET1032
  *Elset, elset=ASSEMBLY_ISAMPLE_ELSET1033
  *Elset, elset=ASSEMBLY_ISAMPLE_ELSET1034
  *Elset, elset=ASSEMBLY_ISAMPLE_ELSET1035
  *Elset, elset=ASSEMBLY_ISAMPLE_ELSET1036
  *Elset, elset=ASSEMBLY_ISAMPLE_ELSET1037
  *Elset, elset=ASSEMBLY_ISAMPLE_ELSET1038
  *Elset, elset=ASSEMBLY_ISAMPLE_ELSET1039
  *Elset, elset=ASSEMBLY_ISAMPLE_ELSET104
  *Elset, elset=ASSEMBLY_ISAMPLE_ELSET1040
  *Elset, elset=ASSEMBLY_ISAMPLE_ELSET1041
  *Elset, elset=ASSEMBLY_ISAMPLE_ELSET1042
  *Elset, elset=ASSEMBLY_ISAMPLE_ELSET1043
  *Elset, elset=ASSEMBLY_ISAMPLE_ELSET1044
  *Elset, elset=ASSEMBLY_ISAMPLE_ELSET1045
  *Elset, elset=ASSEMBLY_ISAMPLE_ELSET1046
  *Elset, elset=ASSEMBLY_ISAMPLE_ELSET1047
  *Elset, elset=ASSEMBLY_ISAMPLE_ELSET1048
  *Elset, elset=ASSEMBLY_ISAMPLE_ELSET1049
  *Elset, elset=ASSEMBLY_ISAMPLE_ELSET105
  *Elset, elset=ASSEMBLY_ISAMPLE_ELSET1050
  *Elset, elset=ASSEMBLY_ISAMPLE_ELSET1051
  *Elset, elset=ASSEMBLY_ISAMPLE_ELSET1052
  *Elset, elset=ASSEMBLY_ISAMPLE_ELSET1053
  *Elset, elset=ASSEMBLY_ISAMPLE_ELSET1054
  *Elset, elset=ASSEMBLY_ISAMPLE_ELSET1055
  *Elset, elset=ASSEMBLY_ISAMPLE_ELSET1056
  *Elset, elset=ASSEMBLY_ISAMPLE_ELSET1057
  *Elset, elset=ASSEMBLY_ISAMPLE_ELSET1058
  *Elset, elset=ASSEMBLY_ISAMPLE_ELSET1059
  *Elset, elset=ASSEMBLY_ISAMPLE_ELSET106
  *Elset, elset=ASSEMBLY_ISAMPLE_ELSET1060
  *Elset, elset=ASSEMBLY_ISAMPLE_ELSET1061
  *Elset, elset=ASSEMBLY_ISAMPLE_ELSET1062
  *Elset, elset=ASSEMBLY_ISAMPLE_ELSET1063
  *Elset, elset=ASSEMBLY_ISAMPLE_ELSET1064
  *Elset, elset=ASSEMBLY_ISAMPLE_ELSET1065
  *Elset, elset=ASSEMBLY_ISAMPLE_ELSET1066
  *Elset, elset=ASSEMBLY_ISAMPLE_ELSET1067
  *Elset, elset=ASSEMBLY_ISAMPLE_ELSET1068
  *Elset, elset=ASSEMBLY_ISAMPLE_ELSET1069
  *Elset, elset=ASSEMBLY_ISAMPLE_ELSET107
  *Elset, elset=ASSEMBLY_ISAMPLE_ELSET1070
  *Elset, elset=ASSEMBLY_ISAMPLE_ELSET1071
  *Elset, elset=ASSEMBLY_ISAMPLE_ELSET1072
  *Elset, elset=ASSEMBLY_ISAMPLE_ELSET1073
  *Elset, elset=ASSEMBLY_ISAMPLE_ELSET1074
  *Elset, elset=ASSEMBLY_ISAMPLE_ELSET1075
  *Elset, elset=ASSEMBLY_ISAMPLE_ELSET1076
  *Elset, elset=ASSEMBLY_ISAMPLE_ELSET1077
  *Elset, elset=ASSEMBLY_ISAMPLE_ELSET1078
  *Elset, elset=ASSEMBLY_ISAMPLE_ELSET1079
  *Elset, elset=ASSEMBLY_ISAMPLE_ELSET108
  *Elset, elset=ASSEMBLY_ISAMPLE_ELSET1080
  *Elset, elset=ASSEMBLY_ISAMPLE_ELSET1081
  *Elset, elset=ASSEMBLY_ISAMPLE_ELSET1082
  *Elset, elset=ASSEMBLY_ISAMPLE_ELSET1083
  *Elset, elset=ASSEMBLY_ISAMPLE_ELSET1084
  *Elset, elset=ASSEMBLY_ISAMPLE_ELSET1085
  *Elset, elset=ASSEMBLY_ISAMPLE_ELSET1086
  *Elset, elset=ASSEMBLY_ISAMPLE_ELSET1087
  *Elset, elset=ASSEMBLY_ISAMPLE_ELSET1088
  *Elset, elset=ASSEMBLY_ISAMPLE_ELSET1089
  *Elset, elset=ASSEMBLY_ISAMPLE_ELSET109
  *Elset, elset=ASSEMBLY_ISAMPLE_ELSET1090
  *Elset, elset=ASSEMBLY_ISAMPLE_ELSET1091
  *Elset, elset=ASSEMBLY_ISAMPLE_ELSET1092
  *Elset, elset=ASSEMBLY_ISAMPLE_ELSET1093
  *Elset, elset=ASSEMBLY_ISAMPLE_ELSET1094
  *Elset, elset=ASSEMBLY_ISAMPLE_ELSET1095
  *Elset, elset=ASSEMBLY_ISAMPLE_ELSET1096
  *Elset, elset=ASSEMBLY_ISAMPLE_ELSET1097
  *Elset, elset=ASSEMBLY_ISAMPLE_ELSET1098
  *Elset, elset=ASSEMBLY_ISAMPLE_ELSET1099
  *Elset, elset=ASSEMBLY_ISAMPLE_ELSET11
  *Elset, elset=ASSEMBLY_ISAMPLE_ELSET110
  *Elset, elset=ASSEMBLY_ISAMPLE_ELSET1100
  *Elset, elset=ASSEMBLY_ISAMPLE_ELSET1101
  *Elset, elset=ASSEMBLY_ISAMPLE_ELSET1102
  *Elset, elset=ASSEMBLY_ISAMPLE_ELSET1103
  *Elset, elset=ASSEMBLY_ISAMPLE_ELSET1104
  *Elset, elset=ASSEMBLY_ISAMPLE_ELSET1105
  *Elset, elset=ASSEMBLY_ISAMPLE_ELSET1106
  *Elset, elset=ASSEMBLY_ISAMPLE_ELSET1107
  *Elset, elset=ASSEMBLY_ISAMPLE_ELSET1108
  *Elset, elset=ASSEMBLY_ISAMPLE_ELSET1109
  *Elset, elset=ASSEMBLY_ISAMPLE_ELSET111
  *Elset, elset=ASSEMBLY_ISAMPLE_ELSET1110
  *Elset, elset=ASSEMBLY_ISAMPLE_ELSET1111
  *Elset, elset=ASSEMBLY_ISAMPLE_ELSET1112
  *Elset, elset=ASSEMBLY_ISAMPLE_ELSET1113
  *Elset, elset=ASSEMBLY_ISAMPLE_ELSET1114
  *Elset, elset=ASSEMBLY_ISAMPLE_ELSET1115
  *Elset, elset=ASSEMBLY_ISAMPLE_ELSET1116
  *Elset, elset=ASSEMBLY_ISAMPLE_ELSET1117
  *Elset, elset=ASSEMBLY_ISAMPLE_ELSET1118
  *Elset, elset=ASSEMBLY_ISAMPLE_ELSET1119
  *Elset, elset=ASSEMBLY_ISAMPLE_ELSET112
  *Elset, elset=ASSEMBLY_ISAMPLE_ELSET1120
  *Elset, elset=ASSEMBLY_ISAMPLE_ELSET1121
  *Elset, elset=ASSEMBLY_ISAMPLE_ELSET1122
  *Elset, elset=ASSEMBLY_ISAMPLE_ELSET1123
  *Elset, elset=ASSEMBLY_ISAMPLE_ELSET1124
  *Elset, elset=ASSEMBLY_ISAMPLE_ELSET1125
  *Elset, elset=ASSEMBLY_ISAMPLE_ELSET1126
  *Elset, elset=ASSEMBLY_ISAMPLE_ELSET1127
  *Elset, elset=ASSEMBLY_ISAMPLE_ELSET1128
  *Elset, elset=ASSEMBLY_ISAMPLE_ELSET1129
  *Elset, elset=ASSEMBLY_ISAMPLE_ELSET113
  *Elset, elset=ASSEMBLY_ISAMPLE_ELSET1130
  *Elset, elset=ASSEMBLY_ISAMPLE_ELSET1131
  *Elset, elset=ASSEMBLY_ISAMPLE_ELSET1132
  *Elset, elset=ASSEMBLY_ISAMPLE_ELSET1133
  *Elset, elset=ASSEMBLY_ISAMPLE_ELSET1134
  *Elset, elset=ASSEMBLY_ISAMPLE_ELSET1135
  *Elset, elset=ASSEMBLY_ISAMPLE_ELSET1136
  *Elset, elset=ASSEMBLY_ISAMPLE_ELSET1137
  *Elset, elset=ASSEMBLY_ISAMPLE_ELSET1138
  *Elset, elset=ASSEMBLY_ISAMPLE_ELSET1139
  *Elset, elset=ASSEMBLY_ISAMPLE_ELSET114
  *Elset, elset=ASSEMBLY_ISAMPLE_ELSET1140
  *Elset, elset=ASSEMBLY_ISAMPLE_ELSET1141
  *Elset, elset=ASSEMBLY_ISAMPLE_ELSET1142
  *Elset, elset=ASSEMBLY_ISAMPLE_ELSET1143
  *Elset, elset=ASSEMBLY_ISAMPLE_ELSET1144
  *Elset, elset=ASSEMBLY_ISAMPLE_ELSET1145
  *Elset, elset=ASSEMBLY_ISAMPLE_ELSET1146
  *Elset, elset=ASSEMBLY_ISAMPLE_ELSET1147
  *Elset, elset=ASSEMBLY_ISAMPLE_ELSET1148
  *Elset, elset=ASSEMBLY_ISAMPLE_ELSET1149
  *Elset, elset=ASSEMBLY_ISAMPLE_ELSET115
  *Elset, elset=ASSEMBLY_ISAMPLE_ELSET1150
  *Elset, elset=ASSEMBLY_ISAMPLE_ELSET1151
  *Elset, elset=ASSEMBLY_ISAMPLE_ELSET1152
  *Elset, elset=ASSEMBLY_ISAMPLE_ELSET1153
  *Elset, elset=ASSEMBLY_ISAMPLE_ELSET1154
  *Elset, elset=ASSEMBLY_ISAMPLE_ELSET1155
  *Elset, elset=ASSEMBLY_ISAMPLE_ELSET1156
  *Elset, elset=ASSEMBLY_ISAMPLE_ELSET1157
  *Elset, elset=ASSEMBLY_ISAMPLE_ELSET1158
  *Elset, elset=ASSEMBLY_ISAMPLE_ELSET1159
  *Elset, elset=ASSEMBLY_ISAMPLE_ELSET116
  *Elset, elset=ASSEMBLY_ISAMPLE_ELSET1160
  *Elset, elset=ASSEMBLY_ISAMPLE_ELSET1161
  *Elset, elset=ASSEMBLY_ISAMPLE_ELSET1162
  *Elset, elset=ASSEMBLY_ISAMPLE_ELSET1163
  *Elset, elset=ASSEMBLY_ISAMPLE_ELSET1164
  *Elset, elset=ASSEMBLY_ISAMPLE_ELSET1165
  *Elset, elset=ASSEMBLY_ISAMPLE_ELSET1166
  *Elset, elset=ASSEMBLY_ISAMPLE_ELSET1167
  *Elset, elset=ASSEMBLY_ISAMPLE_ELSET1168
  *Elset, elset=ASSEMBLY_ISAMPLE_ELSET1169
  *Elset, elset=ASSEMBLY_ISAMPLE_ELSET117
  *Elset, elset=ASSEMBLY_ISAMPLE_ELSET1170
  *Elset, elset=ASSEMBLY_ISAMPLE_ELSET1171
  *Elset, elset=ASSEMBLY_ISAMPLE_ELSET1172
  *Elset, elset=ASSEMBLY_ISAMPLE_ELSET1173
  *Elset, elset=ASSEMBLY_ISAMPLE_ELSET1174
  *Elset, elset=ASSEMBLY_ISAMPLE_ELSET1175
  *Elset, elset=ASSEMBLY_ISAMPLE_ELSET1176
  *Elset, elset=ASSEMBLY_ISAMPLE_ELSET1177
  *Elset, elset=ASSEMBLY_ISAMPLE_ELSET1178
  *Elset, elset=ASSEMBLY_ISAMPLE_ELSET1179
  *Elset, elset=ASSEMBLY_ISAMPLE_ELSET118
  *Elset, elset=ASSEMBLY_ISAMPLE_ELSET1180
  *Elset, elset=ASSEMBLY_ISAMPLE_ELSET1181
  *Elset, elset=ASSEMBLY_ISAMPLE_ELSET1182
  *Elset, elset=ASSEMBLY_ISAMPLE_ELSET1183
  *Elset, elset=ASSEMBLY_ISAMPLE_ELSET1184
  *Elset, elset=ASSEMBLY_ISAMPLE_ELSET1185
  *Elset, elset=ASSEMBLY_ISAMPLE_ELSET1186
  *Elset, elset=ASSEMBLY_ISAMPLE_ELSET1187
  *Elset, elset=ASSEMBLY_ISAMPLE_ELSET1188
  *Elset, elset=ASSEMBLY_ISAMPLE_ELSET1189
  *Elset, elset=ASSEMBLY_ISAMPLE_ELSET119
  *Elset, elset=ASSEMBLY_ISAMPLE_ELSET1190
  *Elset, elset=ASSEMBLY_ISAMPLE_ELSET1191
  *Elset, elset=ASSEMBLY_ISAMPLE_ELSET1192
  *Elset, elset=ASSEMBLY_ISAMPLE_ELSET1193
  *Elset, elset=ASSEMBLY_ISAMPLE_ELSET1194
  *Elset, elset=ASSEMBLY_ISAMPLE_ELSET1195
  *Elset, elset=ASSEMBLY_ISAMPLE_ELSET1196
  *Elset, elset=ASSEMBLY_ISAMPLE_ELSET1197
  *Elset, elset=ASSEMBLY_ISAMPLE_ELSET1198
  *Elset, elset=ASSEMBLY_ISAMPLE_ELSET1199
  *Elset, elset=ASSEMBLY_ISAMPLE_ELSET12
  *Elset, elset=ASSEMBLY_ISAMPLE_ELSET120
  *Elset, elset=ASSEMBLY_ISAMPLE_ELSET1200
  *Elset, elset=ASSEMBLY_ISAMPLE_ELSET1201
  *Elset, elset=ASSEMBLY_ISAMPLE_ELSET1202
  *Elset, elset=ASSEMBLY_ISAMPLE_ELSET1203
  *Elset, elset=ASSEMBLY_ISAMPLE_ELSET1204
  *Elset, elset=ASSEMBLY_ISAMPLE_ELSET1205
  *Elset, elset=ASSEMBLY_ISAMPLE_ELSET1206
  *Elset, elset=ASSEMBLY_ISAMPLE_ELSET1207
  *Elset, elset=ASSEMBLY_ISAMPLE_ELSET1208
  *Elset, elset=ASSEMBLY_ISAMPLE_ELSET1209
  *Elset, elset=ASSEMBLY_ISAMPLE_ELSET121
  *Elset, elset=ASSEMBLY_ISAMPLE_ELSET1210
  *Elset, elset=ASSEMBLY_ISAMPLE_ELSET1211
  *Elset, elset=ASSEMBLY_ISAMPLE_ELSET1212
  *Elset, elset=ASSEMBLY_ISAMPLE_ELSET1213
  *Elset, elset=ASSEMBLY_ISAMPLE_ELSET1214
  *Elset, elset=ASSEMBLY_ISAMPLE_ELSET1215
  *Elset, elset=ASSEMBLY_ISAMPLE_ELSET1216
  *Elset, elset=ASSEMBLY_ISAMPLE_ELSET1217
  *Elset, elset=ASSEMBLY_ISAMPLE_ELSET1218
  *Elset, elset=ASSEMBLY_ISAMPLE_ELSET1219
  *Elset, elset=ASSEMBLY_ISAMPLE_ELSET122
  *Elset, elset=ASSEMBLY_ISAMPLE_ELSET1220
  *Elset, elset=ASSEMBLY_ISAMPLE_ELSET1221
  *Elset, elset=ASSEMBLY_ISAMPLE_ELSET1222
  *Elset, elset=ASSEMBLY_ISAMPLE_ELSET1223
  *Elset, elset=ASSEMBLY_ISAMPLE_ELSET1224
  *Elset, elset=ASSEMBLY_ISAMPLE_ELSET1225
  *Elset, elset=ASSEMBLY_ISAMPLE_ELSET1226
  *Elset, elset=ASSEMBLY_ISAMPLE_ELSET1227
  *Elset, elset=ASSEMBLY_ISAMPLE_ELSET1228
  *Elset, elset=ASSEMBLY_ISAMPLE_ELSET1229
  *Elset, elset=ASSEMBLY_ISAMPLE_ELSET123
  *Elset, elset=ASSEMBLY_ISAMPLE_ELSET1230
  *Elset, elset=ASSEMBLY_ISAMPLE_ELSET1231
  *Elset, elset=ASSEMBLY_ISAMPLE_ELSET1232
  *Elset, elset=ASSEMBLY_ISAMPLE_ELSET1233
  *Elset, elset=ASSEMBLY_ISAMPLE_ELSET1234
  *Elset, elset=ASSEMBLY_ISAMPLE_ELSET1235
  *Elset, elset=ASSEMBLY_ISAMPLE_ELSET1236
  *Elset, elset=ASSEMBLY_ISAMPLE_ELSET1237
  *Elset, elset=ASSEMBLY_ISAMPLE_ELSET1238
  *Elset, elset=ASSEMBLY_ISAMPLE_ELSET1239
  *Elset, elset=ASSEMBLY_ISAMPLE_ELSET124
  *Elset, elset=ASSEMBLY_ISAMPLE_ELSET1240
  *Elset, elset=ASSEMBLY_ISAMPLE_ELSET1241
  *Elset, elset=ASSEMBLY_ISAMPLE_ELSET1242
  *Elset, elset=ASSEMBLY_ISAMPLE_ELSET1243
  *Elset, elset=ASSEMBLY_ISAMPLE_ELSET1244
  *Elset, elset=ASSEMBLY_ISAMPLE_ELSET1245
  *Elset, elset=ASSEMBLY_ISAMPLE_ELSET1246
  *Elset, elset=ASSEMBLY_ISAMPLE_ELSET1247
  *Elset, elset=ASSEMBLY_ISAMPLE_ELSET1248
  *Elset, elset=ASSEMBLY_ISAMPLE_ELSET1249
  *Elset, elset=ASSEMBLY_ISAMPLE_ELSET125
  *Elset, elset=ASSEMBLY_ISAMPLE_ELSET1250
  *Elset, elset=ASSEMBLY_ISAMPLE_ELSET1251
  *Elset, elset=ASSEMBLY_ISAMPLE_ELSET1252
  *Elset, elset=ASSEMBLY_ISAMPLE_ELSET1253
  *Elset, elset=ASSEMBLY_ISAMPLE_ELSET1254
  *Elset, elset=ASSEMBLY_ISAMPLE_ELSET1255
  *Elset, elset=ASSEMBLY_ISAMPLE_ELSET1256
  *Elset, elset=ASSEMBLY_ISAMPLE_ELSET1257
  *Elset, elset=ASSEMBLY_ISAMPLE_ELSET1258
  *Elset, elset=ASSEMBLY_ISAMPLE_ELSET1259
  *Elset, elset=ASSEMBLY_ISAMPLE_ELSET126
  *Elset, elset=ASSEMBLY_ISAMPLE_ELSET1260
  *Elset, elset=ASSEMBLY_ISAMPLE_ELSET1261
  *Elset, elset=ASSEMBLY_ISAMPLE_ELSET1262
  *Elset, elset=ASSEMBLY_ISAMPLE_ELSET1263
  *Elset, elset=ASSEMBLY_ISAMPLE_ELSET1264
  *Elset, elset=ASSEMBLY_ISAMPLE_ELSET1265
  *Elset, elset=ASSEMBLY_ISAMPLE_ELSET1266
  *Elset, elset=ASSEMBLY_ISAMPLE_ELSET1267
  *Elset, elset=ASSEMBLY_ISAMPLE_ELSET1268
  *Elset, elset=ASSEMBLY_ISAMPLE_ELSET1269
  *Elset, elset=ASSEMBLY_ISAMPLE_ELSET127
  *Elset, elset=ASSEMBLY_ISAMPLE_ELSET1270
  *Elset, elset=ASSEMBLY_ISAMPLE_ELSET1271
  *Elset, elset=ASSEMBLY_ISAMPLE_ELSET1272
  *Elset, elset=ASSEMBLY_ISAMPLE_ELSET1273
  *Elset, elset=ASSEMBLY_ISAMPLE_ELSET1274
  *Elset, elset=ASSEMBLY_ISAMPLE_ELSET1275
  *Elset, elset=ASSEMBLY_ISAMPLE_ELSET1276
  *Elset, elset=ASSEMBLY_ISAMPLE_ELSET1277
  *Elset, elset=ASSEMBLY_ISAMPLE_ELSET1278
  *Elset, elset=ASSEMBLY_ISAMPLE_ELSET1279
  *Elset, elset=ASSEMBLY_ISAMPLE_ELSET128
  *Elset, elset=ASSEMBLY_ISAMPLE_ELSET1280
  *Elset, elset=ASSEMBLY_ISAMPLE_ELSET1281
  *Elset, elset=ASSEMBLY_ISAMPLE_ELSET1282
  *Elset, elset=ASSEMBLY_ISAMPLE_ELSET1283
  *Elset, elset=ASSEMBLY_ISAMPLE_ELSET1284
  *Elset, elset=ASSEMBLY_ISAMPLE_ELSET1285
  *Elset, elset=ASSEMBLY_ISAMPLE_ELSET1286
  *Elset, elset=ASSEMBLY_ISAMPLE_ELSET1287
  *Elset, elset=ASSEMBLY_ISAMPLE_ELSET1288
  *Elset, elset=ASSEMBLY_ISAMPLE_ELSET1289
  *Elset, elset=ASSEMBLY_ISAMPLE_ELSET129
  *Elset, elset=ASSEMBLY_ISAMPLE_ELSET1290
  *Elset, elset=ASSEMBLY_ISAMPLE_ELSET1291
  *Elset, elset=ASSEMBLY_ISAMPLE_ELSET1292
  *Elset, elset=ASSEMBLY_ISAMPLE_ELSET1293
  *Elset, elset=ASSEMBLY_ISAMPLE_ELSET1294
  *Elset, elset=ASSEMBLY_ISAMPLE_ELSET1295
  *Elset, elset=ASSEMBLY_ISAMPLE_ELSET1296
  *Elset, elset=ASSEMBLY_ISAMPLE_ELSET1297
  *Elset, elset=ASSEMBLY_ISAMPLE_ELSET1298
  *Elset, elset=ASSEMBLY_ISAMPLE_ELSET1299
  *Elset, elset=ASSEMBLY_ISAMPLE_ELSET13
  *Elset, elset=ASSEMBLY_ISAMPLE_ELSET130
  *Elset, elset=ASSEMBLY_ISAMPLE_ELSET1300
  *Elset, elset=ASSEMBLY_ISAMPLE_ELSET1301
  *Elset, elset=ASSEMBLY_ISAMPLE_ELSET1302
  *Elset, elset=ASSEMBLY_ISAMPLE_ELSET1303
  *Elset, elset=ASSEMBLY_ISAMPLE_ELSET1304
  *Elset, elset=ASSEMBLY_ISAMPLE_ELSET1305
  *Elset, elset=ASSEMBLY_ISAMPLE_ELSET1306
  *Elset, elset=ASSEMBLY_ISAMPLE_ELSET1307
  *Elset, elset=ASSEMBLY_ISAMPLE_ELSET1308
  *Elset, elset=ASSEMBLY_ISAMPLE_ELSET1309
  *Elset, elset=ASSEMBLY_ISAMPLE_ELSET131
  *Elset, elset=ASSEMBLY_ISAMPLE_ELSET1310
  *Elset, elset=ASSEMBLY_ISAMPLE_ELSET1311
  *Elset, elset=ASSEMBLY_ISAMPLE_ELSET1312
  *Elset, elset=ASSEMBLY_ISAMPLE_ELSET1313
  *Elset, elset=ASSEMBLY_ISAMPLE_ELSET1314
  *Elset, elset=ASSEMBLY_ISAMPLE_ELSET1315
  *Elset, elset=ASSEMBLY_ISAMPLE_ELSET1316
  *Elset, elset=ASSEMBLY_ISAMPLE_ELSET1317
  *Elset, elset=ASSEMBLY_ISAMPLE_ELSET1318
  *Elset, elset=ASSEMBLY_ISAMPLE_ELSET1319
  *Elset, elset=ASSEMBLY_ISAMPLE_ELSET132
  *Elset, elset=ASSEMBLY_ISAMPLE_ELSET1320
  *Elset, elset=ASSEMBLY_ISAMPLE_ELSET1321
  *Elset, elset=ASSEMBLY_ISAMPLE_ELSET1322
  *Elset, elset=ASSEMBLY_ISAMPLE_ELSET1323
  *Elset, elset=ASSEMBLY_ISAMPLE_ELSET1324
  *Elset, elset=ASSEMBLY_ISAMPLE_ELSET1325
  *Elset, elset=ASSEMBLY_ISAMPLE_ELSET1326
  *Elset, elset=ASSEMBLY_ISAMPLE_ELSET1327
  *Elset, elset=ASSEMBLY_ISAMPLE_ELSET1328
  *Elset, elset=ASSEMBLY_ISAMPLE_ELSET1329
  *Elset, elset=ASSEMBLY_ISAMPLE_ELSET133
  *Elset, elset=ASSEMBLY_ISAMPLE_ELSET1330
  *Elset, elset=ASSEMBLY_ISAMPLE_ELSET1331
  *Elset, elset=ASSEMBLY_ISAMPLE_ELSET1332
  *Elset, elset=ASSEMBLY_ISAMPLE_ELSET1333
  *Elset, elset=ASSEMBLY_ISAMPLE_ELSET1334
  *Elset, elset=ASSEMBLY_ISAMPLE_ELSET1335
  *Elset, elset=ASSEMBLY_ISAMPLE_ELSET1336
  *Elset, elset=ASSEMBLY_ISAMPLE_ELSET1337
  *Elset, elset=ASSEMBLY_ISAMPLE_ELSET1338
  *Elset, elset=ASSEMBLY_ISAMPLE_ELSET1339
  *Elset, elset=ASSEMBLY_ISAMPLE_ELSET134
  *Elset, elset=ASSEMBLY_ISAMPLE_ELSET1340
  *Elset, elset=ASSEMBLY_ISAMPLE_ELSET1341
  *Elset, elset=ASSEMBLY_ISAMPLE_ELSET1342
  *Elset, elset=ASSEMBLY_ISAMPLE_ELSET1343
  *Elset, elset=ASSEMBLY_ISAMPLE_ELSET1344
  *Elset, elset=ASSEMBLY_ISAMPLE_ELSET1345
  *Elset, elset=ASSEMBLY_ISAMPLE_ELSET1346
  *Elset, elset=ASSEMBLY_ISAMPLE_ELSET1347
  *Elset, elset=ASSEMBLY_ISAMPLE_ELSET1348
  *Elset, elset=ASSEMBLY_ISAMPLE_ELSET1349
  *Elset, elset=ASSEMBLY_ISAMPLE_ELSET135
  *Elset, elset=ASSEMBLY_ISAMPLE_ELSET1350
  *Elset, elset=ASSEMBLY_ISAMPLE_ELSET1351
  *Elset, elset=ASSEMBLY_ISAMPLE_ELSET1352
  *Elset, elset=ASSEMBLY_ISAMPLE_ELSET1353
  *Elset, elset=ASSEMBLY_ISAMPLE_ELSET1354
  *Elset, elset=ASSEMBLY_ISAMPLE_ELSET1355
  *Elset, elset=ASSEMBLY_ISAMPLE_ELSET1356
  *Elset, elset=ASSEMBLY_ISAMPLE_ELSET1357
  *Elset, elset=ASSEMBLY_ISAMPLE_ELSET1358
  *Elset, elset=ASSEMBLY_ISAMPLE_ELSET1359
  *Elset, elset=ASSEMBLY_ISAMPLE_ELSET136
  *Elset, elset=ASSEMBLY_ISAMPLE_ELSET1360
  *Elset, elset=ASSEMBLY_ISAMPLE_ELSET1361
  *Elset, elset=ASSEMBLY_ISAMPLE_ELSET1362
  *Elset, elset=ASSEMBLY_ISAMPLE_ELSET1363
  *Elset, elset=ASSEMBLY_ISAMPLE_ELSET1364
  *Elset, elset=ASSEMBLY_ISAMPLE_ELSET1365
  *Elset, elset=ASSEMBLY_ISAMPLE_ELSET1366
  *Elset, elset=ASSEMBLY_ISAMPLE_ELSET1367
  *Elset, elset=ASSEMBLY_ISAMPLE_ELSET1368
  *Elset, elset=ASSEMBLY_ISAMPLE_ELSET1369
  *Elset, elset=ASSEMBLY_ISAMPLE_ELSET137
  *Elset, elset=ASSEMBLY_ISAMPLE_ELSET1370
  *Elset, elset=ASSEMBLY_ISAMPLE_ELSET1371
  *Elset, elset=ASSEMBLY_ISAMPLE_ELSET1372
  *Elset, elset=ASSEMBLY_ISAMPLE_ELSET1373
  *Elset, elset=ASSEMBLY_ISAMPLE_ELSET1374
  *Elset, elset=ASSEMBLY_ISAMPLE_ELSET1375
  *Elset, elset=ASSEMBLY_ISAMPLE_ELSET1376
  *Elset, elset=ASSEMBLY_ISAMPLE_ELSET1377
  *Elset, elset=ASSEMBLY_ISAMPLE_ELSET1378
  *Elset, elset=ASSEMBLY_ISAMPLE_ELSET1379
  *Elset, elset=ASSEMBLY_ISAMPLE_ELSET138
  *Elset, elset=ASSEMBLY_ISAMPLE_ELSET1380
  *Elset, elset=ASSEMBLY_ISAMPLE_ELSET1381
  *Elset, elset=ASSEMBLY_ISAMPLE_ELSET1382
  *Elset, elset=ASSEMBLY_ISAMPLE_ELSET1383
  *Elset, elset=ASSEMBLY_ISAMPLE_ELSET1384
  *Elset, elset=ASSEMBLY_ISAMPLE_ELSET1385
  *Elset, elset=ASSEMBLY_ISAMPLE_ELSET1386
  *Elset, elset=ASSEMBLY_ISAMPLE_ELSET1387
  *Elset, elset=ASSEMBLY_ISAMPLE_ELSET1388
  *Elset, elset=ASSEMBLY_ISAMPLE_ELSET1389
  *Elset, elset=ASSEMBLY_ISAMPLE_ELSET139
  *Elset, elset=ASSEMBLY_ISAMPLE_ELSET1390
  *Elset, elset=ASSEMBLY_ISAMPLE_ELSET1391
  *Elset, elset=ASSEMBLY_ISAMPLE_ELSET1392
  *Elset, elset=ASSEMBLY_ISAMPLE_ELSET1393
  *Elset, elset=ASSEMBLY_ISAMPLE_ELSET1394
  *Elset, elset=ASSEMBLY_ISAMPLE_ELSET1395
  *Elset, elset=ASSEMBLY_ISAMPLE_ELSET1396
  *Elset, elset=ASSEMBLY_ISAMPLE_ELSET1397
  *Elset, elset=ASSEMBLY_ISAMPLE_ELSET1398
  *Elset, elset=ASSEMBLY_ISAMPLE_ELSET1399
  *Elset, elset=ASSEMBLY_ISAMPLE_ELSET14
  *Elset, elset=ASSEMBLY_ISAMPLE_ELSET140
  *Elset, elset=ASSEMBLY_ISAMPLE_ELSET1400
  *Elset, elset=ASSEMBLY_ISAMPLE_ELSET1401
  *Elset, elset=ASSEMBLY_ISAMPLE_ELSET1402
  *Elset, elset=ASSEMBLY_ISAMPLE_ELSET1403
  *Elset, elset=ASSEMBLY_ISAMPLE_ELSET1404
  *Elset, elset=ASSEMBLY_ISAMPLE_ELSET1405
  *Elset, elset=ASSEMBLY_ISAMPLE_ELSET1406
  *Elset, elset=ASSEMBLY_ISAMPLE_ELSET1407
  *Elset, elset=ASSEMBLY_ISAMPLE_ELSET1408
  *Elset, elset=ASSEMBLY_ISAMPLE_ELSET1409
  *Elset, elset=ASSEMBLY_ISAMPLE_ELSET141
  *Elset, elset=ASSEMBLY_ISAMPLE_ELSET1410
  *Elset, elset=ASSEMBLY_ISAMPLE_ELSET1411
  *Elset, elset=ASSEMBLY_ISAMPLE_ELSET1412
  *Elset, elset=ASSEMBLY_ISAMPLE_ELSET1413
  *Elset, elset=ASSEMBLY_ISAMPLE_ELSET1414
  *Elset, elset=ASSEMBLY_ISAMPLE_ELSET1415
  *Elset, elset=ASSEMBLY_ISAMPLE_ELSET1416
  *Elset, elset=ASSEMBLY_ISAMPLE_ELSET1417
  *Elset, elset=ASSEMBLY_ISAMPLE_ELSET1418
  *Elset, elset=ASSEMBLY_ISAMPLE_ELSET1419
  *Elset, elset=ASSEMBLY_ISAMPLE_ELSET142
  *Elset, elset=ASSEMBLY_ISAMPLE_ELSET1420
  *Elset, elset=ASSEMBLY_ISAMPLE_ELSET1421
  *Elset, elset=ASSEMBLY_ISAMPLE_ELSET1422
  *Elset, elset=ASSEMBLY_ISAMPLE_ELSET1423
  *Elset, elset=ASSEMBLY_ISAMPLE_ELSET1424
  *Elset, elset=ASSEMBLY_ISAMPLE_ELSET1425
  *Elset, elset=ASSEMBLY_ISAMPLE_ELSET1426
  *Elset, elset=ASSEMBLY_ISAMPLE_ELSET1427
  *Elset, elset=ASSEMBLY_ISAMPLE_ELSET1428
  *Elset, elset=ASSEMBLY_ISAMPLE_ELSET1429
  *Elset, elset=ASSEMBLY_ISAMPLE_ELSET143
  *Elset, elset=ASSEMBLY_ISAMPLE_ELSET1430
  *Elset, elset=ASSEMBLY_ISAMPLE_ELSET1431
  *Elset, elset=ASSEMBLY_ISAMPLE_ELSET1432
  *Elset, elset=ASSEMBLY_ISAMPLE_ELSET1433
  *Elset, elset=ASSEMBLY_ISAMPLE_ELSET1434
  *Elset, elset=ASSEMBLY_ISAMPLE_ELSET1435
  *Elset, elset=ASSEMBLY_ISAMPLE_ELSET1436
  *Elset, elset=ASSEMBLY_ISAMPLE_ELSET1437
  *Elset, elset=ASSEMBLY_ISAMPLE_ELSET1438
  *Elset, elset=ASSEMBLY_ISAMPLE_ELSET1439
  *Elset, elset=ASSEMBLY_ISAMPLE_ELSET144
  *Elset, elset=ASSEMBLY_ISAMPLE_ELSET1440
  *Elset, elset=ASSEMBLY_ISAMPLE_ELSET1441
  *Elset, elset=ASSEMBLY_ISAMPLE_ELSET1442
  *Elset, elset=ASSEMBLY_ISAMPLE_ELSET1443
  *Elset, elset=ASSEMBLY_ISAMPLE_ELSET1444
  *Elset, elset=ASSEMBLY_ISAMPLE_ELSET1445
  *Elset, elset=ASSEMBLY_ISAMPLE_ELSET1446
  *Elset, elset=ASSEMBLY_ISAMPLE_ELSET1447
  *Elset, elset=ASSEMBLY_ISAMPLE_ELSET1448
  *Elset, elset=ASSEMBLY_ISAMPLE_ELSET1449
  *Elset, elset=ASSEMBLY_ISAMPLE_ELSET145
  *Elset, elset=ASSEMBLY_ISAMPLE_ELSET1450
  *Elset, elset=ASSEMBLY_ISAMPLE_ELSET1451
  *Elset, elset=ASSEMBLY_ISAMPLE_ELSET1452
  *Elset, elset=ASSEMBLY_ISAMPLE_ELSET1453
  *Elset, elset=ASSEMBLY_ISAMPLE_ELSET1454
  *Elset, elset=ASSEMBLY_ISAMPLE_ELSET1455
  *Elset, elset=ASSEMBLY_ISAMPLE_ELSET1456
  *Elset, elset=ASSEMBLY_ISAMPLE_ELSET1457
  *Elset, elset=ASSEMBLY_ISAMPLE_ELSET1458
  *Elset, elset=ASSEMBLY_ISAMPLE_ELSET1459
  *Elset, elset=ASSEMBLY_ISAMPLE_ELSET146
  *Elset, elset=ASSEMBLY_ISAMPLE_ELSET1460
  *Elset, elset=ASSEMBLY_ISAMPLE_ELSET1461
  *Elset, elset=ASSEMBLY_ISAMPLE_ELSET1462
  *Elset, elset=ASSEMBLY_ISAMPLE_ELSET1463
  *Elset, elset=ASSEMBLY_ISAMPLE_ELSET1464
  *Elset, elset=ASSEMBLY_ISAMPLE_ELSET1465
  *Elset, elset=ASSEMBLY_ISAMPLE_ELSET1466
  *Elset, elset=ASSEMBLY_ISAMPLE_ELSET1467
  *Elset, elset=ASSEMBLY_ISAMPLE_ELSET1468
  *Elset, elset=ASSEMBLY_ISAMPLE_ELSET1469
  *Elset, elset=ASSEMBLY_ISAMPLE_ELSET147
  *Elset, elset=ASSEMBLY_ISAMPLE_ELSET1470
  *Elset, elset=ASSEMBLY_ISAMPLE_ELSET1471
  *Elset, elset=ASSEMBLY_ISAMPLE_ELSET1472
  *Elset, elset=ASSEMBLY_ISAMPLE_ELSET1473
  *Elset, elset=ASSEMBLY_ISAMPLE_ELSET1474
  *Elset, elset=ASSEMBLY_ISAMPLE_ELSET1475
  *Elset, elset=ASSEMBLY_ISAMPLE_ELSET1476
  *Elset, elset=ASSEMBLY_ISAMPLE_ELSET1477
  *Elset, elset=ASSEMBLY_ISAMPLE_ELSET1478
  *Elset, elset=ASSEMBLY_ISAMPLE_ELSET1479
  *Elset, elset=ASSEMBLY_ISAMPLE_ELSET148
  *Elset, elset=ASSEMBLY_ISAMPLE_ELSET1480
  *Elset, elset=ASSEMBLY_ISAMPLE_ELSET1481
  *Elset, elset=ASSEMBLY_ISAMPLE_ELSET1482
  *Elset, elset=ASSEMBLY_ISAMPLE_ELSET1483
  *Elset, elset=ASSEMBLY_ISAMPLE_ELSET1484
  *Elset, elset=ASSEMBLY_ISAMPLE_ELSET1485
  *Elset, elset=ASSEMBLY_ISAMPLE_ELSET1486
  *Elset, elset=ASSEMBLY_ISAMPLE_ELSET1487
  *Elset, elset=ASSEMBLY_ISAMPLE_ELSET1488
  *Elset, elset=ASSEMBLY_ISAMPLE_ELSET1489
  *Elset, elset=ASSEMBLY_ISAMPLE_ELSET149
  *Elset, elset=ASSEMBLY_ISAMPLE_ELSET1490
  *Elset, elset=ASSEMBLY_ISAMPLE_ELSET1491
  *Elset, elset=ASSEMBLY_ISAMPLE_ELSET1492
  *Elset, elset=ASSEMBLY_ISAMPLE_ELSET1493
  *Elset, elset=ASSEMBLY_ISAMPLE_ELSET1494
  *Elset, elset=ASSEMBLY_ISAMPLE_ELSET1495
  *Elset, elset=ASSEMBLY_ISAMPLE_ELSET1496
  *Elset, elset=ASSEMBLY_ISAMPLE_ELSET1497
  *Elset, elset=ASSEMBLY_ISAMPLE_ELSET1498
  *Elset, elset=ASSEMBLY_ISAMPLE_ELSET1499
  *Elset, elset=ASSEMBLY_ISAMPLE_ELSET15
  *Elset, elset=ASSEMBLY_ISAMPLE_ELSET150
  *Elset, elset=ASSEMBLY_ISAMPLE_ELSET1500
  *Elset, elset=ASSEMBLY_ISAMPLE_ELSET1501
  *Elset, elset=ASSEMBLY_ISAMPLE_ELSET1502
  *Elset, elset=ASSEMBLY_ISAMPLE_ELSET1503
  *Elset, elset=ASSEMBLY_ISAMPLE_ELSET1504
  *Elset, elset=ASSEMBLY_ISAMPLE_ELSET1505
  *Elset, elset=ASSEMBLY_ISAMPLE_ELSET1506
  *Elset, elset=ASSEMBLY_ISAMPLE_ELSET1507
  *Elset, elset=ASSEMBLY_ISAMPLE_ELSET1508
  *Elset, elset=ASSEMBLY_ISAMPLE_ELSET1509
  *Elset, elset=ASSEMBLY_ISAMPLE_ELSET151
  *Elset, elset=ASSEMBLY_ISAMPLE_ELSET1510
  *Elset, elset=ASSEMBLY_ISAMPLE_ELSET1511
  *Elset, elset=ASSEMBLY_ISAMPLE_ELSET1512
  *Elset, elset=ASSEMBLY_ISAMPLE_ELSET1513
  *Elset, elset=ASSEMBLY_ISAMPLE_ELSET1514
  *Elset, elset=ASSEMBLY_ISAMPLE_ELSET1515
  *Elset, elset=ASSEMBLY_ISAMPLE_ELSET1516
  *Elset, elset=ASSEMBLY_ISAMPLE_ELSET1517
  *Elset, elset=ASSEMBLY_ISAMPLE_ELSET1518
  *Elset, elset=ASSEMBLY_ISAMPLE_ELSET1519
  *Elset, elset=ASSEMBLY_ISAMPLE_ELSET152
  *Elset, elset=ASSEMBLY_ISAMPLE_ELSET1520
  *Elset, elset=ASSEMBLY_ISAMPLE_ELSET1521
  *Elset, elset=ASSEMBLY_ISAMPLE_ELSET1522
  *Elset, elset=ASSEMBLY_ISAMPLE_ELSET1523
  *Elset, elset=ASSEMBLY_ISAMPLE_ELSET1524
  *Elset, elset=ASSEMBLY_ISAMPLE_ELSET1525
  *Elset, elset=ASSEMBLY_ISAMPLE_ELSET1526
  *Elset, elset=ASSEMBLY_ISAMPLE_ELSET1527
  *Elset, elset=ASSEMBLY_ISAMPLE_ELSET1528
  *Elset, elset=ASSEMBLY_ISAMPLE_ELSET1529
  *Elset, elset=ASSEMBLY_ISAMPLE_ELSET153
  *Elset, elset=ASSEMBLY_ISAMPLE_ELSET1530
  *Elset, elset=ASSEMBLY_ISAMPLE_ELSET1531
  *Elset, elset=ASSEMBLY_ISAMPLE_ELSET1532
  *Elset, elset=ASSEMBLY_ISAMPLE_ELSET1533
  *Elset, elset=ASSEMBLY_ISAMPLE_ELSET1534
  *Elset, elset=ASSEMBLY_ISAMPLE_ELSET1535
  *Elset, elset=ASSEMBLY_ISAMPLE_ELSET1536
  *Elset, elset=ASSEMBLY_ISAMPLE_ELSET1537
  *Elset, elset=ASSEMBLY_ISAMPLE_ELSET1538
  *Elset, elset=ASSEMBLY_ISAMPLE_ELSET1539
  *Elset, elset=ASSEMBLY_ISAMPLE_ELSET154
  *Elset, elset=ASSEMBLY_ISAMPLE_ELSET1540
  *Elset, elset=ASSEMBLY_ISAMPLE_ELSET1541
  *Elset, elset=ASSEMBLY_ISAMPLE_ELSET1542
  *Elset, elset=ASSEMBLY_ISAMPLE_ELSET1543
  *Elset, elset=ASSEMBLY_ISAMPLE_ELSET1544
  *Elset, elset=ASSEMBLY_ISAMPLE_ELSET1545
  *Elset, elset=ASSEMBLY_ISAMPLE_ELSET1546
  *Elset, elset=ASSEMBLY_ISAMPLE_ELSET1547
  *Elset, elset=ASSEMBLY_ISAMPLE_ELSET1548
  *Elset, elset=ASSEMBLY_ISAMPLE_ELSET1549
  *Elset, elset=ASSEMBLY_ISAMPLE_ELSET155
  *Elset, elset=ASSEMBLY_ISAMPLE_ELSET1550
  *Elset, elset=ASSEMBLY_ISAMPLE_ELSET1551
  *Elset, elset=ASSEMBLY_ISAMPLE_ELSET1552
  *Elset, elset=ASSEMBLY_ISAMPLE_ELSET1553
  *Elset, elset=ASSEMBLY_ISAMPLE_ELSET1554
  *Elset, elset=ASSEMBLY_ISAMPLE_ELSET1555
  *Elset, elset=ASSEMBLY_ISAMPLE_ELSET1556
  *Elset, elset=ASSEMBLY_ISAMPLE_ELSET1557
  *Elset, elset=ASSEMBLY_ISAMPLE_ELSET1558
  *Elset, elset=ASSEMBLY_ISAMPLE_ELSET1559
  *Elset, elset=ASSEMBLY_ISAMPLE_ELSET156
  *Elset, elset=ASSEMBLY_ISAMPLE_ELSET1560
  *Elset, elset=ASSEMBLY_ISAMPLE_ELSET1561
  *Elset, elset=ASSEMBLY_ISAMPLE_ELSET1562
  *Elset, elset=ASSEMBLY_ISAMPLE_ELSET1563
  *Elset, elset=ASSEMBLY_ISAMPLE_ELSET1564
  *Elset, elset=ASSEMBLY_ISAMPLE_ELSET1565
  *Elset, elset=ASSEMBLY_ISAMPLE_ELSET1566
  *Elset, elset=ASSEMBLY_ISAMPLE_ELSET1567
  *Elset, elset=ASSEMBLY_ISAMPLE_ELSET1568
  *Elset, elset=ASSEMBLY_ISAMPLE_ELSET1569
  *Elset, elset=ASSEMBLY_ISAMPLE_ELSET157
  *Elset, elset=ASSEMBLY_ISAMPLE_ELSET1570
  *Elset, elset=ASSEMBLY_ISAMPLE_ELSET1571
  *Elset, elset=ASSEMBLY_ISAMPLE_ELSET1572
  *Elset, elset=ASSEMBLY_ISAMPLE_ELSET1573
  *Elset, elset=ASSEMBLY_ISAMPLE_ELSET1574
  *Elset, elset=ASSEMBLY_ISAMPLE_ELSET1575
  *Elset, elset=ASSEMBLY_ISAMPLE_ELSET1576
  *Elset, elset=ASSEMBLY_ISAMPLE_ELSET1577
  *Elset, elset=ASSEMBLY_ISAMPLE_ELSET1578
  *Elset, elset=ASSEMBLY_ISAMPLE_ELSET1579
  *Elset, elset=ASSEMBLY_ISAMPLE_ELSET158
  *Elset, elset=ASSEMBLY_ISAMPLE_ELSET1580
  *Elset, elset=ASSEMBLY_ISAMPLE_ELSET1581
  *Elset, elset=ASSEMBLY_ISAMPLE_ELSET1582
  *Elset, elset=ASSEMBLY_ISAMPLE_ELSET1583
  *Elset, elset=ASSEMBLY_ISAMPLE_ELSET1584
  *Elset, elset=ASSEMBLY_ISAMPLE_ELSET1585
  *Elset, elset=ASSEMBLY_ISAMPLE_ELSET1586
  *Elset, elset=ASSEMBLY_ISAMPLE_ELSET1587
  *Elset, elset=ASSEMBLY_ISAMPLE_ELSET1588
  *Elset, elset=ASSEMBLY_ISAMPLE_ELSET1589
  *Elset, elset=ASSEMBLY_ISAMPLE_ELSET159
  *Elset, elset=ASSEMBLY_ISAMPLE_ELSET1590
  *Elset, elset=ASSEMBLY_ISAMPLE_ELSET1591
  *Elset, elset=ASSEMBLY_ISAMPLE_ELSET1592
  *Elset, elset=ASSEMBLY_ISAMPLE_ELSET1593
  *Elset, elset=ASSEMBLY_ISAMPLE_ELSET1594
  *Elset, elset=ASSEMBLY_ISAMPLE_ELSET1595
  *Elset, elset=ASSEMBLY_ISAMPLE_ELSET1596
  *Elset, elset=ASSEMBLY_ISAMPLE_ELSET1597
  *Elset, elset=ASSEMBLY_ISAMPLE_ELSET1598
  *Elset, elset=ASSEMBLY_ISAMPLE_ELSET1599
  *Elset, elset=ASSEMBLY_ISAMPLE_ELSET16
  *Elset, elset=ASSEMBLY_ISAMPLE_ELSET160
  *Elset, elset=ASSEMBLY_ISAMPLE_ELSET1600
  *Elset, elset=ASSEMBLY_ISAMPLE_ELSET1601
  *Elset, elset=ASSEMBLY_ISAMPLE_ELSET1602
  *Elset, elset=ASSEMBLY_ISAMPLE_ELSET1603
  *Elset, elset=ASSEMBLY_ISAMPLE_ELSET1604
  *Elset, elset=ASSEMBLY_ISAMPLE_ELSET1605
  *Elset, elset=ASSEMBLY_ISAMPLE_ELSET1606
  *Elset, elset=ASSEMBLY_ISAMPLE_ELSET1607
  *Elset, elset=ASSEMBLY_ISAMPLE_ELSET1608
  *Elset, elset=ASSEMBLY_ISAMPLE_ELSET1609
  *Elset, elset=ASSEMBLY_ISAMPLE_ELSET161
  *Elset, elset=ASSEMBLY_ISAMPLE_ELSET1610
  *Elset, elset=ASSEMBLY_ISAMPLE_ELSET1611
  *Elset, elset=ASSEMBLY_ISAMPLE_ELSET1612
  *Elset, elset=ASSEMBLY_ISAMPLE_ELSET1613
  *Elset, elset=ASSEMBLY_ISAMPLE_ELSET1614
  *Elset, elset=ASSEMBLY_ISAMPLE_ELSET1615
  *Elset, elset=ASSEMBLY_ISAMPLE_ELSET1616
  *Elset, elset=ASSEMBLY_ISAMPLE_ELSET1617
  *Elset, elset=ASSEMBLY_ISAMPLE_ELSET1618
  *Elset, elset=ASSEMBLY_ISAMPLE_ELSET1619
  *Elset, elset=ASSEMBLY_ISAMPLE_ELSET162
  *Elset, elset=ASSEMBLY_ISAMPLE_ELSET1620
  *Elset, elset=ASSEMBLY_ISAMPLE_ELSET1621
  *Elset, elset=ASSEMBLY_ISAMPLE_ELSET1622
  *Elset, elset=ASSEMBLY_ISAMPLE_ELSET1623
  *Elset, elset=ASSEMBLY_ISAMPLE_ELSET1624
  *Elset, elset=ASSEMBLY_ISAMPLE_ELSET1625
  *Elset, elset=ASSEMBLY_ISAMPLE_ELSET1626
  *Elset, elset=ASSEMBLY_ISAMPLE_ELSET1627
  *Elset, elset=ASSEMBLY_ISAMPLE_ELSET1628
  *Elset, elset=ASSEMBLY_ISAMPLE_ELSET1629
  *Elset, elset=ASSEMBLY_ISAMPLE_ELSET163
  *Elset, elset=ASSEMBLY_ISAMPLE_ELSET1630
  *Elset, elset=ASSEMBLY_ISAMPLE_ELSET1631
  *Elset, elset=ASSEMBLY_ISAMPLE_ELSET1632
  *Elset, elset=ASSEMBLY_ISAMPLE_ELSET1633
  *Elset, elset=ASSEMBLY_ISAMPLE_ELSET1634
  *Elset, elset=ASSEMBLY_ISAMPLE_ELSET1635
  *Elset, elset=ASSEMBLY_ISAMPLE_ELSET1636
  *Elset, elset=ASSEMBLY_ISAMPLE_ELSET1637
  *Elset, elset=ASSEMBLY_ISAMPLE_ELSET1638
  *Elset, elset=ASSEMBLY_ISAMPLE_ELSET1639
  *Elset, elset=ASSEMBLY_ISAMPLE_ELSET164
  *Elset, elset=ASSEMBLY_ISAMPLE_ELSET1640
  *Elset, elset=ASSEMBLY_ISAMPLE_ELSET1641
  *Elset, elset=ASSEMBLY_ISAMPLE_ELSET1642
  *Elset, elset=ASSEMBLY_ISAMPLE_ELSET1643
  *Elset, elset=ASSEMBLY_ISAMPLE_ELSET1644
  *Elset, elset=ASSEMBLY_ISAMPLE_ELSET1645
  *Elset, elset=ASSEMBLY_ISAMPLE_ELSET1646
  *Elset, elset=ASSEMBLY_ISAMPLE_ELSET1647
  *Elset, elset=ASSEMBLY_ISAMPLE_ELSET1648
  *Elset, elset=ASSEMBLY_ISAMPLE_ELSET1649
  *Elset, elset=ASSEMBLY_ISAMPLE_ELSET165
  *Elset, elset=ASSEMBLY_ISAMPLE_ELSET1650
  *Elset, elset=ASSEMBLY_ISAMPLE_ELSET1651
  *Elset, elset=ASSEMBLY_ISAMPLE_ELSET1652
  *Elset, elset=ASSEMBLY_ISAMPLE_ELSET1653
  *Elset, elset=ASSEMBLY_ISAMPLE_ELSET1654
  *Elset, elset=ASSEMBLY_ISAMPLE_ELSET1655
  *Elset, elset=ASSEMBLY_ISAMPLE_ELSET1656
  *Elset, elset=ASSEMBLY_ISAMPLE_ELSET1657
  *Elset, elset=ASSEMBLY_ISAMPLE_ELSET1658
  *Elset, elset=ASSEMBLY_ISAMPLE_ELSET1659
  *Elset, elset=ASSEMBLY_ISAMPLE_ELSET166
  *Elset, elset=ASSEMBLY_ISAMPLE_ELSET1660
  *Elset, elset=ASSEMBLY_ISAMPLE_ELSET1661
  *Elset, elset=ASSEMBLY_ISAMPLE_ELSET1662
  *Elset, elset=ASSEMBLY_ISAMPLE_ELSET1663
  *Elset, elset=ASSEMBLY_ISAMPLE_ELSET1664
  *Elset, elset=ASSEMBLY_ISAMPLE_ELSET1665
  *Elset, elset=ASSEMBLY_ISAMPLE_ELSET1666
  *Elset, elset=ASSEMBLY_ISAMPLE_ELSET1667
  *Elset, elset=ASSEMBLY_ISAMPLE_ELSET1668
  *Elset, elset=ASSEMBLY_ISAMPLE_ELSET1669
  *Elset, elset=ASSEMBLY_ISAMPLE_ELSET167
  *Elset, elset=ASSEMBLY_ISAMPLE_ELSET1670
  *Elset, elset=ASSEMBLY_ISAMPLE_ELSET1671
  *Elset, elset=ASSEMBLY_ISAMPLE_ELSET1672
  *Elset, elset=ASSEMBLY_ISAMPLE_ELSET1673
  *Elset, elset=ASSEMBLY_ISAMPLE_ELSET1674
  *Elset, elset=ASSEMBLY_ISAMPLE_ELSET1675
  *Elset, elset=ASSEMBLY_ISAMPLE_ELSET1676
  *Elset, elset=ASSEMBLY_ISAMPLE_ELSET1677
  *Elset, elset=ASSEMBLY_ISAMPLE_ELSET1678
  *Elset, elset=ASSEMBLY_ISAMPLE_ELSET1679
  *Elset, elset=ASSEMBLY_ISAMPLE_ELSET168
  *Elset, elset=ASSEMBLY_ISAMPLE_ELSET1680
  *Elset, elset=ASSEMBLY_ISAMPLE_ELSET1681
  *Elset, elset=ASSEMBLY_ISAMPLE_ELSET1682
  *Elset, elset=ASSEMBLY_ISAMPLE_ELSET1683
  *Elset, elset=ASSEMBLY_ISAMPLE_ELSET1684
  *Elset, elset=ASSEMBLY_ISAMPLE_ELSET1685
  *Elset, elset=ASSEMBLY_ISAMPLE_ELSET1686
  *Elset, elset=ASSEMBLY_ISAMPLE_ELSET1687
  *Elset, elset=ASSEMBLY_ISAMPLE_ELSET1688
  *Elset, elset=ASSEMBLY_ISAMPLE_ELSET1689
  *Elset, elset=ASSEMBLY_ISAMPLE_ELSET169
  *Elset, elset=ASSEMBLY_ISAMPLE_ELSET1690
  *Elset, elset=ASSEMBLY_ISAMPLE_ELSET1691
  *Elset, elset=ASSEMBLY_ISAMPLE_ELSET1692
  *Elset, elset=ASSEMBLY_ISAMPLE_ELSET1693
  *Elset, elset=ASSEMBLY_ISAMPLE_ELSET1694
  *Elset, elset=ASSEMBLY_ISAMPLE_ELSET1695
  *Elset, elset=ASSEMBLY_ISAMPLE_ELSET1696
  *Elset, elset=ASSEMBLY_ISAMPLE_ELSET1697
  *Elset, elset=ASSEMBLY_ISAMPLE_ELSET1698
  *Elset, elset=ASSEMBLY_ISAMPLE_ELSET1699
  *Elset, elset=ASSEMBLY_ISAMPLE_ELSET17
  *Elset, elset=ASSEMBLY_ISAMPLE_ELSET170
  *Elset, elset=ASSEMBLY_ISAMPLE_ELSET1700
  *Elset, elset=ASSEMBLY_ISAMPLE_ELSET1701
  *Elset, elset=ASSEMBLY_ISAMPLE_ELSET1702
  *Elset, elset=ASSEMBLY_ISAMPLE_ELSET1703
  *Elset, elset=ASSEMBLY_ISAMPLE_ELSET1704
  *Elset, elset=ASSEMBLY_ISAMPLE_ELSET1705
  *Elset, elset=ASSEMBLY_ISAMPLE_ELSET1706
  *Elset, elset=ASSEMBLY_ISAMPLE_ELSET1707
  *Elset, elset=ASSEMBLY_ISAMPLE_ELSET1708
  *Elset, elset=ASSEMBLY_ISAMPLE_ELSET1709
  *Elset, elset=ASSEMBLY_ISAMPLE_ELSET171
  *Elset, elset=ASSEMBLY_ISAMPLE_ELSET1710
  *Elset, elset=ASSEMBLY_ISAMPLE_ELSET1711
  *Elset, elset=ASSEMBLY_ISAMPLE_ELSET1712
  *Elset, elset=ASSEMBLY_ISAMPLE_ELSET1713
  *Elset, elset=ASSEMBLY_ISAMPLE_ELSET1714
  *Elset, elset=ASSEMBLY_ISAMPLE_ELSET1715
  *Elset, elset=ASSEMBLY_ISAMPLE_ELSET1716
  *Elset, elset=ASSEMBLY_ISAMPLE_ELSET1717
  *Elset, elset=ASSEMBLY_ISAMPLE_ELSET1718
  *Elset, elset=ASSEMBLY_ISAMPLE_ELSET1719
  *Elset, elset=ASSEMBLY_ISAMPLE_ELSET172
  *Elset, elset=ASSEMBLY_ISAMPLE_ELSET1720
  *Elset, elset=ASSEMBLY_ISAMPLE_ELSET1721
  *Elset, elset=ASSEMBLY_ISAMPLE_ELSET1722
  *Elset, elset=ASSEMBLY_ISAMPLE_ELSET1723
  *Elset, elset=ASSEMBLY_ISAMPLE_ELSET1724
  *Elset, elset=ASSEMBLY_ISAMPLE_ELSET1725
  *Elset, elset=ASSEMBLY_ISAMPLE_ELSET1726
  *Elset, elset=ASSEMBLY_ISAMPLE_ELSET1727
  *Elset, elset=ASSEMBLY_ISAMPLE_ELSET1728
  *Elset, elset=ASSEMBLY_ISAMPLE_ELSET1729
  *Elset, elset=ASSEMBLY_ISAMPLE_ELSET173
  *Elset, elset=ASSEMBLY_ISAMPLE_ELSET1730
  *Elset, elset=ASSEMBLY_ISAMPLE_ELSET1731
  *Elset, elset=ASSEMBLY_ISAMPLE_ELSET1732
  *Elset, elset=ASSEMBLY_ISAMPLE_ELSET1733
  *Elset, elset=ASSEMBLY_ISAMPLE_ELSET1734
  *Elset, elset=ASSEMBLY_ISAMPLE_ELSET1735
  *Elset, elset=ASSEMBLY_ISAMPLE_ELSET1736
  *Elset, elset=ASSEMBLY_ISAMPLE_ELSET1737
  *Elset, elset=ASSEMBLY_ISAMPLE_ELSET1738
  *Elset, elset=ASSEMBLY_ISAMPLE_ELSET1739
  *Elset, elset=ASSEMBLY_ISAMPLE_ELSET174
  *Elset, elset=ASSEMBLY_ISAMPLE_ELSET1740
  *Elset, elset=ASSEMBLY_ISAMPLE_ELSET1741
  *Elset, elset=ASSEMBLY_ISAMPLE_ELSET1742
  *Elset, elset=ASSEMBLY_ISAMPLE_ELSET1743
  *Elset, elset=ASSEMBLY_ISAMPLE_ELSET1744
  *Elset, elset=ASSEMBLY_ISAMPLE_ELSET1745
  *Elset, elset=ASSEMBLY_ISAMPLE_ELSET1746
  *Elset, elset=ASSEMBLY_ISAMPLE_ELSET1747
  *Elset, elset=ASSEMBLY_ISAMPLE_ELSET1748
  *Elset, elset=ASSEMBLY_ISAMPLE_ELSET1749
  *Elset, elset=ASSEMBLY_ISAMPLE_ELSET175
  *Elset, elset=ASSEMBLY_ISAMPLE_ELSET1750
  *Elset, elset=ASSEMBLY_ISAMPLE_ELSET1751
  *Elset, elset=ASSEMBLY_ISAMPLE_ELSET1752
  *Elset, elset=ASSEMBLY_ISAMPLE_ELSET1753
  *Elset, elset=ASSEMBLY_ISAMPLE_ELSET1754
  *Elset, elset=ASSEMBLY_ISAMPLE_ELSET1755
  *Elset, elset=ASSEMBLY_ISAMPLE_ELSET1756
  *Elset, elset=ASSEMBLY_ISAMPLE_ELSET1757
  *Elset, elset=ASSEMBLY_ISAMPLE_ELSET1758
  *Elset, elset=ASSEMBLY_ISAMPLE_ELSET1759
  *Elset, elset=ASSEMBLY_ISAMPLE_ELSET176
  *Elset, elset=ASSEMBLY_ISAMPLE_ELSET1760
  *Elset, elset=ASSEMBLY_ISAMPLE_ELSET1761
  *Elset, elset=ASSEMBLY_ISAMPLE_ELSET1762
  *Elset, elset=ASSEMBLY_ISAMPLE_ELSET1763
  *Elset, elset=ASSEMBLY_ISAMPLE_ELSET1764
  *Elset, elset=ASSEMBLY_ISAMPLE_ELSET1765
  *Elset, elset=ASSEMBLY_ISAMPLE_ELSET1766
  *Elset, elset=ASSEMBLY_ISAMPLE_ELSET1767
  *Elset, elset=ASSEMBLY_ISAMPLE_ELSET1768
  *Elset, elset=ASSEMBLY_ISAMPLE_ELSET1769
  *Elset, elset=ASSEMBLY_ISAMPLE_ELSET177
  *Elset, elset=ASSEMBLY_ISAMPLE_ELSET1770
  *Elset, elset=ASSEMBLY_ISAMPLE_ELSET1771
  *Elset, elset=ASSEMBLY_ISAMPLE_ELSET1772
  *Elset, elset=ASSEMBLY_ISAMPLE_ELSET1773
  *Elset, elset=ASSEMBLY_ISAMPLE_ELSET1774
  *Elset, elset=ASSEMBLY_ISAMPLE_ELSET1775
  *Elset, elset=ASSEMBLY_ISAMPLE_ELSET1776
  *Elset, elset=ASSEMBLY_ISAMPLE_ELSET1777
  *Elset, elset=ASSEMBLY_ISAMPLE_ELSET1778
  *Elset, elset=ASSEMBLY_ISAMPLE_ELSET1779
  *Elset, elset=ASSEMBLY_ISAMPLE_ELSET178
  *Elset, elset=ASSEMBLY_ISAMPLE_ELSET1780
  *Elset, elset=ASSEMBLY_ISAMPLE_ELSET1781
  *Elset, elset=ASSEMBLY_ISAMPLE_ELSET1782
  *Elset, elset=ASSEMBLY_ISAMPLE_ELSET1783
  *Elset, elset=ASSEMBLY_ISAMPLE_ELSET1784
  *Elset, elset=ASSEMBLY_ISAMPLE_ELSET1785
  *Elset, elset=ASSEMBLY_ISAMPLE_ELSET1786
  *Elset, elset=ASSEMBLY_ISAMPLE_ELSET1787
  *Elset, elset=ASSEMBLY_ISAMPLE_ELSET1788
  *Elset, elset=ASSEMBLY_ISAMPLE_ELSET1789
  *Elset, elset=ASSEMBLY_ISAMPLE_ELSET179
  *Elset, elset=ASSEMBLY_ISAMPLE_ELSET1790
  *Elset, elset=ASSEMBLY_ISAMPLE_ELSET1791
  *Elset, elset=ASSEMBLY_ISAMPLE_ELSET1792
  *Elset, elset=ASSEMBLY_ISAMPLE_ELSET1793
  *Elset, elset=ASSEMBLY_ISAMPLE_ELSET1794
  *Elset, elset=ASSEMBLY_ISAMPLE_ELSET1795
  *Elset, elset=ASSEMBLY_ISAMPLE_ELSET1796
  *Elset, elset=ASSEMBLY_ISAMPLE_ELSET1797
  *Elset, elset=ASSEMBLY_ISAMPLE_ELSET1798
  *Elset, elset=ASSEMBLY_ISAMPLE_ELSET1799
  *Elset, elset=ASSEMBLY_ISAMPLE_ELSET18
  *Elset, elset=ASSEMBLY_ISAMPLE_ELSET180
  *Elset, elset=ASSEMBLY_ISAMPLE_ELSET1800
  *Elset, elset=ASSEMBLY_ISAMPLE_ELSET1801
  *Elset, elset=ASSEMBLY_ISAMPLE_ELSET1802
  *Elset, elset=ASSEMBLY_ISAMPLE_ELSET1803
  *Elset, elset=ASSEMBLY_ISAMPLE_ELSET1804
  *Elset, elset=ASSEMBLY_ISAMPLE_ELSET1805
  *Elset, elset=ASSEMBLY_ISAMPLE_ELSET1806
  *Elset, elset=ASSEMBLY_ISAMPLE_ELSET1807
  *Elset, elset=ASSEMBLY_ISAMPLE_ELSET1808
  *Elset, elset=ASSEMBLY_ISAMPLE_ELSET1809
  *Elset, elset=ASSEMBLY_ISAMPLE_ELSET181
  *Elset, elset=ASSEMBLY_ISAMPLE_ELSET1810
  *Elset, elset=ASSEMBLY_ISAMPLE_ELSET1811
  *Elset, elset=ASSEMBLY_ISAMPLE_ELSET1812
  *Elset, elset=ASSEMBLY_ISAMPLE_ELSET1813
  *Elset, elset=ASSEMBLY_ISAMPLE_ELSET1814
  *Elset, elset=ASSEMBLY_ISAMPLE_ELSET1815
  *Elset, elset=ASSEMBLY_ISAMPLE_ELSET1816
  *Elset, elset=ASSEMBLY_ISAMPLE_ELSET1817
  *Elset, elset=ASSEMBLY_ISAMPLE_ELSET1818
  *Elset, elset=ASSEMBLY_ISAMPLE_ELSET1819
  *Elset, elset=ASSEMBLY_ISAMPLE_ELSET182
  *Elset, elset=ASSEMBLY_ISAMPLE_ELSET1820
  *Elset, elset=ASSEMBLY_ISAMPLE_ELSET1821
  *Elset, elset=ASSEMBLY_ISAMPLE_ELSET1822
  *Elset, elset=ASSEMBLY_ISAMPLE_ELSET1823
  *Elset, elset=ASSEMBLY_ISAMPLE_ELSET1824
  *Elset, elset=ASSEMBLY_ISAMPLE_ELSET1825
  *Elset, elset=ASSEMBLY_ISAMPLE_ELSET1826
  *Elset, elset=ASSEMBLY_ISAMPLE_ELSET1827
  *Elset, elset=ASSEMBLY_ISAMPLE_ELSET1828
  *Elset, elset=ASSEMBLY_ISAMPLE_ELSET1829
  *Elset, elset=ASSEMBLY_ISAMPLE_ELSET183
  *Elset, elset=ASSEMBLY_ISAMPLE_ELSET1830
  *Elset, elset=ASSEMBLY_ISAMPLE_ELSET1831
  *Elset, elset=ASSEMBLY_ISAMPLE_ELSET1832
  *Elset, elset=ASSEMBLY_ISAMPLE_ELSET1833
  *Elset, elset=ASSEMBLY_ISAMPLE_ELSET1834
  *Elset, elset=ASSEMBLY_ISAMPLE_ELSET1835
  *Elset, elset=ASSEMBLY_ISAMPLE_ELSET1836
  *Elset, elset=ASSEMBLY_ISAMPLE_ELSET1837
  *Elset, elset=ASSEMBLY_ISAMPLE_ELSET1838
  *Elset, elset=ASSEMBLY_ISAMPLE_ELSET1839
  *Elset, elset=ASSEMBLY_ISAMPLE_ELSET184
  *Elset, elset=ASSEMBLY_ISAMPLE_ELSET1840
  *Elset, elset=ASSEMBLY_ISAMPLE_ELSET1841
  *Elset, elset=ASSEMBLY_ISAMPLE_ELSET1842
  *Elset, elset=ASSEMBLY_ISAMPLE_ELSET1843
  *Elset, elset=ASSEMBLY_ISAMPLE_ELSET1844
  *Elset, elset=ASSEMBLY_ISAMPLE_ELSET1845
  *Elset, elset=ASSEMBLY_ISAMPLE_ELSET1846
  *Elset, elset=ASSEMBLY_ISAMPLE_ELSET1847
  *Elset, elset=ASSEMBLY_ISAMPLE_ELSET1848
  *Elset, elset=ASSEMBLY_ISAMPLE_ELSET1849
  *Elset, elset=ASSEMBLY_ISAMPLE_ELSET185
  *Elset, elset=ASSEMBLY_ISAMPLE_ELSET1850
  *Elset, elset=ASSEMBLY_ISAMPLE_ELSET1851
  *Elset, elset=ASSEMBLY_ISAMPLE_ELSET1852
  *Elset, elset=ASSEMBLY_ISAMPLE_ELSET1853
  *Elset, elset=ASSEMBLY_ISAMPLE_ELSET1854
  *Elset, elset=ASSEMBLY_ISAMPLE_ELSET1855
  *Elset, elset=ASSEMBLY_ISAMPLE_ELSET1856
  *Elset, elset=ASSEMBLY_ISAMPLE_ELSET1857
  *Elset, elset=ASSEMBLY_ISAMPLE_ELSET1858
  *Elset, elset=ASSEMBLY_ISAMPLE_ELSET1859
  *Elset, elset=ASSEMBLY_ISAMPLE_ELSET186
  *Elset, elset=ASSEMBLY_ISAMPLE_ELSET1860
  *Elset, elset=ASSEMBLY_ISAMPLE_ELSET1861
  *Elset, elset=ASSEMBLY_ISAMPLE_ELSET1862
  *Elset, elset=ASSEMBLY_ISAMPLE_ELSET1863
  *Elset, elset=ASSEMBLY_ISAMPLE_ELSET1864
  *Elset, elset=ASSEMBLY_ISAMPLE_ELSET1865
  *Elset, elset=ASSEMBLY_ISAMPLE_ELSET1866
  *Elset, elset=ASSEMBLY_ISAMPLE_ELSET1867
  *Elset, elset=ASSEMBLY_ISAMPLE_ELSET1868
  *Elset, elset=ASSEMBLY_ISAMPLE_ELSET1869
  *Elset, elset=ASSEMBLY_ISAMPLE_ELSET187
  *Elset, elset=ASSEMBLY_ISAMPLE_ELSET1870
  *Elset, elset=ASSEMBLY_ISAMPLE_ELSET1871
  *Elset, elset=ASSEMBLY_ISAMPLE_ELSET1872
  *Elset, elset=ASSEMBLY_ISAMPLE_ELSET1873
  *Elset, elset=ASSEMBLY_ISAMPLE_ELSET1874
  *Elset, elset=ASSEMBLY_ISAMPLE_ELSET1875
  *Elset, elset=ASSEMBLY_ISAMPLE_ELSET1876
  *Elset, elset=ASSEMBLY_ISAMPLE_ELSET1877
  *Elset, elset=ASSEMBLY_ISAMPLE_ELSET1878
  *Elset, elset=ASSEMBLY_ISAMPLE_ELSET1879
  *Elset, elset=ASSEMBLY_ISAMPLE_ELSET188
  *Elset, elset=ASSEMBLY_ISAMPLE_ELSET1880
  *Elset, elset=ASSEMBLY_ISAMPLE_ELSET1881
  *Elset, elset=ASSEMBLY_ISAMPLE_ELSET1882
  *Elset, elset=ASSEMBLY_ISAMPLE_ELSET1883
  *Elset, elset=ASSEMBLY_ISAMPLE_ELSET1884
  *Elset, elset=ASSEMBLY_ISAMPLE_ELSET1885
  *Elset, elset=ASSEMBLY_ISAMPLE_ELSET1886
  *Elset, elset=ASSEMBLY_ISAMPLE_ELSET1887
  *Elset, elset=ASSEMBLY_ISAMPLE_ELSET1888
  *Elset, elset=ASSEMBLY_ISAMPLE_ELSET1889
  *Elset, elset=ASSEMBLY_ISAMPLE_ELSET189
  *Elset, elset=ASSEMBLY_ISAMPLE_ELSET1890
  *Elset, elset=ASSEMBLY_ISAMPLE_ELSET1891
  *Elset, elset=ASSEMBLY_ISAMPLE_ELSET1892
  *Elset, elset=ASSEMBLY_ISAMPLE_ELSET1893
  *Elset, elset=ASSEMBLY_ISAMPLE_ELSET1894
  *Elset, elset=ASSEMBLY_ISAMPLE_ELSET1895
  *Elset, elset=ASSEMBLY_ISAMPLE_ELSET1896
  *Elset, elset=ASSEMBLY_ISAMPLE_ELSET1897
  *Elset, elset=ASSEMBLY_ISAMPLE_ELSET1898
  *Elset, elset=ASSEMBLY_ISAMPLE_ELSET1899
  *Elset, elset=ASSEMBLY_ISAMPLE_ELSET19
  *Elset, elset=ASSEMBLY_ISAMPLE_ELSET190
  *Elset, elset=ASSEMBLY_ISAMPLE_ELSET1900
  *Elset, elset=ASSEMBLY_ISAMPLE_ELSET1901
  *Elset, elset=ASSEMBLY_ISAMPLE_ELSET1902
  *Elset, elset=ASSEMBLY_ISAMPLE_ELSET1903
  *Elset, elset=ASSEMBLY_ISAMPLE_ELSET1904
  *Elset, elset=ASSEMBLY_ISAMPLE_ELSET1905
  *Elset, elset=ASSEMBLY_ISAMPLE_ELSET1906
  *Elset, elset=ASSEMBLY_ISAMPLE_ELSET1907
  *Elset, elset=ASSEMBLY_ISAMPLE_ELSET1908
  *Elset, elset=ASSEMBLY_ISAMPLE_ELSET1909
  *Elset, elset=ASSEMBLY_ISAMPLE_ELSET191
  *Elset, elset=ASSEMBLY_ISAMPLE_ELSET1910
  *Elset, elset=ASSEMBLY_ISAMPLE_ELSET1911
  *Elset, elset=ASSEMBLY_ISAMPLE_ELSET1912
  *Elset, elset=ASSEMBLY_ISAMPLE_ELSET1913
  *Elset, elset=ASSEMBLY_ISAMPLE_ELSET1914
  *Elset, elset=ASSEMBLY_ISAMPLE_ELSET1915
  *Elset, elset=ASSEMBLY_ISAMPLE_ELSET1916
  *Elset, elset=ASSEMBLY_ISAMPLE_ELSET1917
  *Elset, elset=ASSEMBLY_ISAMPLE_ELSET1918
  *Elset, elset=ASSEMBLY_ISAMPLE_ELSET1919
  *Elset, elset=ASSEMBLY_ISAMPLE_ELSET192
  *Elset, elset=ASSEMBLY_ISAMPLE_ELSET1920
  *Elset, elset=ASSEMBLY_ISAMPLE_ELSET1921
  *Elset, elset=ASSEMBLY_ISAMPLE_ELSET1922
  *Elset, elset=ASSEMBLY_ISAMPLE_ELSET1923
  *Elset, elset=ASSEMBLY_ISAMPLE_ELSET1924
  *Elset, elset=ASSEMBLY_ISAMPLE_ELSET1925
  *Elset, elset=ASSEMBLY_ISAMPLE_ELSET1926
  *Elset, elset=ASSEMBLY_ISAMPLE_ELSET1927
  *Elset, elset=ASSEMBLY_ISAMPLE_ELSET1928
  *Elset, elset=ASSEMBLY_ISAMPLE_ELSET1929
  *Elset, elset=ASSEMBLY_ISAMPLE_ELSET193
  *Elset, elset=ASSEMBLY_ISAMPLE_ELSET1930
  *Elset, elset=ASSEMBLY_ISAMPLE_ELSET1931
  *Elset, elset=ASSEMBLY_ISAMPLE_ELSET1932
  *Elset, elset=ASSEMBLY_ISAMPLE_ELSET1933
  *Elset, elset=ASSEMBLY_ISAMPLE_ELSET1934
  *Elset, elset=ASSEMBLY_ISAMPLE_ELSET1935
  *Elset, elset=ASSEMBLY_ISAMPLE_ELSET1936
  *Elset, elset=ASSEMBLY_ISAMPLE_ELSET1937
  *Elset, elset=ASSEMBLY_ISAMPLE_ELSET1938
  *Elset, elset=ASSEMBLY_ISAMPLE_ELSET1939
  *Elset, elset=ASSEMBLY_ISAMPLE_ELSET194
  *Elset, elset=ASSEMBLY_ISAMPLE_ELSET1940
  *Elset, elset=ASSEMBLY_ISAMPLE_ELSET1941
  *Elset, elset=ASSEMBLY_ISAMPLE_ELSET1942
  *Elset, elset=ASSEMBLY_ISAMPLE_ELSET1943
  *Elset, elset=ASSEMBLY_ISAMPLE_ELSET1944
  *Elset, elset=ASSEMBLY_ISAMPLE_ELSET1945
  *Elset, elset=ASSEMBLY_ISAMPLE_ELSET1946
  *Elset, elset=ASSEMBLY_ISAMPLE_ELSET1947
  *Elset, elset=ASSEMBLY_ISAMPLE_ELSET1948
  *Elset, elset=ASSEMBLY_ISAMPLE_ELSET1949
  *Elset, elset=ASSEMBLY_ISAMPLE_ELSET195
  *Elset, elset=ASSEMBLY_ISAMPLE_ELSET1950
  *Elset, elset=ASSEMBLY_ISAMPLE_ELSET1951
  *Elset, elset=ASSEMBLY_ISAMPLE_ELSET1952
  *Elset, elset=ASSEMBLY_ISAMPLE_ELSET1953
  *Elset, elset=ASSEMBLY_ISAMPLE_ELSET1954
  *Elset, elset=ASSEMBLY_ISAMPLE_ELSET1955
  *Elset, elset=ASSEMBLY_ISAMPLE_ELSET1956
  *Elset, elset=ASSEMBLY_ISAMPLE_ELSET1957
  *Elset, elset=ASSEMBLY_ISAMPLE_ELSET1958
  *Elset, elset=ASSEMBLY_ISAMPLE_ELSET1959
  *Elset, elset=ASSEMBLY_ISAMPLE_ELSET196
  *Elset, elset=ASSEMBLY_ISAMPLE_ELSET1960
  *Elset, elset=ASSEMBLY_ISAMPLE_ELSET1961
  *Elset, elset=ASSEMBLY_ISAMPLE_ELSET1962
  *Elset, elset=ASSEMBLY_ISAMPLE_ELSET1963
  *Elset, elset=ASSEMBLY_ISAMPLE_ELSET1964
  *Elset, elset=ASSEMBLY_ISAMPLE_ELSET1965
  *Elset, elset=ASSEMBLY_ISAMPLE_ELSET1966
  *Elset, elset=ASSEMBLY_ISAMPLE_ELSET1967
  *Elset, elset=ASSEMBLY_ISAMPLE_ELSET1968
  *Elset, elset=ASSEMBLY_ISAMPLE_ELSET1969
  *Elset, elset=ASSEMBLY_ISAMPLE_ELSET197
  *Elset, elset=ASSEMBLY_ISAMPLE_ELSET1970
  *Elset, elset=ASSEMBLY_ISAMPLE_ELSET1971
  *Elset, elset=ASSEMBLY_ISAMPLE_ELSET1972
  *Elset, elset=ASSEMBLY_ISAMPLE_ELSET1973
  *Elset, elset=ASSEMBLY_ISAMPLE_ELSET1974
  *Elset, elset=ASSEMBLY_ISAMPLE_ELSET1975
  *Elset, elset=ASSEMBLY_ISAMPLE_ELSET1976
  *Elset, elset=ASSEMBLY_ISAMPLE_ELSET1977
  *Elset, elset=ASSEMBLY_ISAMPLE_ELSET1978
  *Elset, elset=ASSEMBLY_ISAMPLE_ELSET1979
  *Elset, elset=ASSEMBLY_ISAMPLE_ELSET198
  *Elset, elset=ASSEMBLY_ISAMPLE_ELSET1980
  *Elset, elset=ASSEMBLY_ISAMPLE_ELSET1981
  *Elset, elset=ASSEMBLY_ISAMPLE_ELSET1982
  *Elset, elset=ASSEMBLY_ISAMPLE_ELSET1983
  *Elset, elset=ASSEMBLY_ISAMPLE_ELSET1984
  *Elset, elset=ASSEMBLY_ISAMPLE_ELSET1985
  *Elset, elset=ASSEMBLY_ISAMPLE_ELSET1986
  *Elset, elset=ASSEMBLY_ISAMPLE_ELSET1987
  *Elset, elset=ASSEMBLY_ISAMPLE_ELSET1988
  *Elset, elset=ASSEMBLY_ISAMPLE_ELSET1989
  *Elset, elset=ASSEMBLY_ISAMPLE_ELSET199
  *Elset, elset=ASSEMBLY_ISAMPLE_ELSET1990
  *Elset, elset=ASSEMBLY_ISAMPLE_ELSET1991
  *Elset, elset=ASSEMBLY_ISAMPLE_ELSET1992
  *Elset, elset=ASSEMBLY_ISAMPLE_ELSET1993
  *Elset, elset=ASSEMBLY_ISAMPLE_ELSET1994
  *Elset, elset=ASSEMBLY_ISAMPLE_ELSET1995
  *Elset, elset=ASSEMBLY_ISAMPLE_ELSET1996
  *Elset, elset=ASSEMBLY_ISAMPLE_ELSET1997
  *Elset, elset=ASSEMBLY_ISAMPLE_ELSET1998
  *Elset, elset=ASSEMBLY_ISAMPLE_ELSET1999
  *Elset, elset=ASSEMBLY_ISAMPLE_ELSET2
  *Elset, elset=ASSEMBLY_ISAMPLE_ELSET20
  *Elset, elset=ASSEMBLY_ISAMPLE_ELSET200
  *Elset, elset=ASSEMBLY_ISAMPLE_ELSET2000
  *Elset, elset=ASSEMBLY_ISAMPLE_ELSET2001
  *Elset, elset=ASSEMBLY_ISAMPLE_ELSET2002
  *Elset, elset=ASSEMBLY_ISAMPLE_ELSET2003
  *Elset, elset=ASSEMBLY_ISAMPLE_ELSET2004
  *Elset, elset=ASSEMBLY_ISAMPLE_ELSET2005
  *Elset, elset=ASSEMBLY_ISAMPLE_ELSET2006
  *Elset, elset=ASSEMBLY_ISAMPLE_ELSET2007
  *Elset, elset=ASSEMBLY_ISAMPLE_ELSET2008
  *Elset, elset=ASSEMBLY_ISAMPLE_ELSET2009
  *Elset, elset=ASSEMBLY_ISAMPLE_ELSET201
  *Elset, elset=ASSEMBLY_ISAMPLE_ELSET2010
  *Elset, elset=ASSEMBLY_ISAMPLE_ELSET2011
  *Elset, elset=ASSEMBLY_ISAMPLE_ELSET2012
  *Elset, elset=ASSEMBLY_ISAMPLE_ELSET2013
  *Elset, elset=ASSEMBLY_ISAMPLE_ELSET2014
  *Elset, elset=ASSEMBLY_ISAMPLE_ELSET2015
  *Elset, elset=ASSEMBLY_ISAMPLE_ELSET2016
  *Elset, elset=ASSEMBLY_ISAMPLE_ELSET2017
  *Elset, elset=ASSEMBLY_ISAMPLE_ELSET2018
  *Elset, elset=ASSEMBLY_ISAMPLE_ELSET2019
  *Elset, elset=ASSEMBLY_ISAMPLE_ELSET202
  *Elset, elset=ASSEMBLY_ISAMPLE_ELSET2020
  *Elset, elset=ASSEMBLY_ISAMPLE_ELSET2021
  *Elset, elset=ASSEMBLY_ISAMPLE_ELSET2022
  *Elset, elset=ASSEMBLY_ISAMPLE_ELSET2023
  *Elset, elset=ASSEMBLY_ISAMPLE_ELSET2024
  *Elset, elset=ASSEMBLY_ISAMPLE_ELSET2025
  *Elset, elset=ASSEMBLY_ISAMPLE_ELSET2026
  *Elset, elset=ASSEMBLY_ISAMPLE_ELSET2027
  *Elset, elset=ASSEMBLY_ISAMPLE_ELSET2028
  *Elset, elset=ASSEMBLY_ISAMPLE_ELSET2029
  *Elset, elset=ASSEMBLY_ISAMPLE_ELSET203
  *Elset, elset=ASSEMBLY_ISAMPLE_ELSET2030
  *Elset, elset=ASSEMBLY_ISAMPLE_ELSET2031
  *Elset, elset=ASSEMBLY_ISAMPLE_ELSET2032
  *Elset, elset=ASSEMBLY_ISAMPLE_ELSET2033
  *Elset, elset=ASSEMBLY_ISAMPLE_ELSET2034
  *Elset, elset=ASSEMBLY_ISAMPLE_ELSET2035
  *Elset, elset=ASSEMBLY_ISAMPLE_ELSET2036
  *Elset, elset=ASSEMBLY_ISAMPLE_ELSET2037
  *Elset, elset=ASSEMBLY_ISAMPLE_ELSET2038
  *Elset, elset=ASSEMBLY_ISAMPLE_ELSET2039
  *Elset, elset=ASSEMBLY_ISAMPLE_ELSET204
  *Elset, elset=ASSEMBLY_ISAMPLE_ELSET2040
  *Elset, elset=ASSEMBLY_ISAMPLE_ELSET2041
  *Elset, elset=ASSEMBLY_ISAMPLE_ELSET2042
  *Elset, elset=ASSEMBLY_ISAMPLE_ELSET2043
  *Elset, elset=ASSEMBLY_ISAMPLE_ELSET2044
  *Elset, elset=ASSEMBLY_ISAMPLE_ELSET2045
  *Elset, elset=ASSEMBLY_ISAMPLE_ELSET2046
  *Elset, elset=ASSEMBLY_ISAMPLE_ELSET2047
  *Elset, elset=ASSEMBLY_ISAMPLE_ELSET2048
  *Elset, elset=ASSEMBLY_ISAMPLE_ELSET2049
  *Elset, elset=ASSEMBLY_ISAMPLE_ELSET205
  *Elset, elset=ASSEMBLY_ISAMPLE_ELSET2050
  *Elset, elset=ASSEMBLY_ISAMPLE_ELSET2051
  *Elset, elset=ASSEMBLY_ISAMPLE_ELSET2052
  *Elset, elset=ASSEMBLY_ISAMPLE_ELSET2053
  *Elset, elset=ASSEMBLY_ISAMPLE_ELSET2054
  *Elset, elset=ASSEMBLY_ISAMPLE_ELSET2055
  *Elset, elset=ASSEMBLY_ISAMPLE_ELSET2056
  *Elset, elset=ASSEMBLY_ISAMPLE_ELSET2057
  *Elset, elset=ASSEMBLY_ISAMPLE_ELSET2058
  *Elset, elset=ASSEMBLY_ISAMPLE_ELSET2059
  *Elset, elset=ASSEMBLY_ISAMPLE_ELSET206
  *Elset, elset=ASSEMBLY_ISAMPLE_ELSET2060
  *Elset, elset=ASSEMBLY_ISAMPLE_ELSET2061
  *Elset, elset=ASSEMBLY_ISAMPLE_ELSET2062
  *Elset, elset=ASSEMBLY_ISAMPLE_ELSET2063
  *Elset, elset=ASSEMBLY_ISAMPLE_ELSET2064
  *Elset, elset=ASSEMBLY_ISAMPLE_ELSET2065
  *Elset, elset=ASSEMBLY_ISAMPLE_ELSET2066
  *Elset, elset=ASSEMBLY_ISAMPLE_ELSET2067
  *Elset, elset=ASSEMBLY_ISAMPLE_ELSET2068
  *Elset, elset=ASSEMBLY_ISAMPLE_ELSET2069
  *Elset, elset=ASSEMBLY_ISAMPLE_ELSET207
  *Elset, elset=ASSEMBLY_ISAMPLE_ELSET2070
  *Elset, elset=ASSEMBLY_ISAMPLE_ELSET2071
  *Elset, elset=ASSEMBLY_ISAMPLE_ELSET2072
  *Elset, elset=ASSEMBLY_ISAMPLE_ELSET2073
  *Elset, elset=ASSEMBLY_ISAMPLE_ELSET2074
  *Elset, elset=ASSEMBLY_ISAMPLE_ELSET2075
  *Elset, elset=ASSEMBLY_ISAMPLE_ELSET2076
  *Elset, elset=ASSEMBLY_ISAMPLE_ELSET2077
  *Elset, elset=ASSEMBLY_ISAMPLE_ELSET2078
  *Elset, elset=ASSEMBLY_ISAMPLE_ELSET2079
  *Elset, elset=ASSEMBLY_ISAMPLE_ELSET208
  *Elset, elset=ASSEMBLY_ISAMPLE_ELSET2080
  *Elset, elset=ASSEMBLY_ISAMPLE_ELSET2081
  *Elset, elset=ASSEMBLY_ISAMPLE_ELSET2082
  *Elset, elset=ASSEMBLY_ISAMPLE_ELSET2083
  *Elset, elset=ASSEMBLY_ISAMPLE_ELSET2084
  *Elset, elset=ASSEMBLY_ISAMPLE_ELSET2085
  *Elset, elset=ASSEMBLY_ISAMPLE_ELSET2086
  *Elset, elset=ASSEMBLY_ISAMPLE_ELSET2087
  *Elset, elset=ASSEMBLY_ISAMPLE_ELSET2088
  *Elset, elset=ASSEMBLY_ISAMPLE_ELSET2089
  *Elset, elset=ASSEMBLY_ISAMPLE_ELSET209
  *Elset, elset=ASSEMBLY_ISAMPLE_ELSET2090
  *Elset, elset=ASSEMBLY_ISAMPLE_ELSET2091
  *Elset, elset=ASSEMBLY_ISAMPLE_ELSET2092
  *Elset, elset=ASSEMBLY_ISAMPLE_ELSET2093
  *Elset, elset=ASSEMBLY_ISAMPLE_ELSET2094
  *Elset, elset=ASSEMBLY_ISAMPLE_ELSET2095
  *Elset, elset=ASSEMBLY_ISAMPLE_ELSET2096
  *Elset, elset=ASSEMBLY_ISAMPLE_ELSET2097
  *Elset, elset=ASSEMBLY_ISAMPLE_ELSET2098
  *Elset, elset=ASSEMBLY_ISAMPLE_ELSET2099
  *Elset, elset=ASSEMBLY_ISAMPLE_ELSET21
  *Elset, elset=ASSEMBLY_ISAMPLE_ELSET210
  *Elset, elset=ASSEMBLY_ISAMPLE_ELSET2100
  *Elset, elset=ASSEMBLY_ISAMPLE_ELSET2101
  *Elset, elset=ASSEMBLY_ISAMPLE_ELSET2102
  *Elset, elset=ASSEMBLY_ISAMPLE_ELSET2103
  *Elset, elset=ASSEMBLY_ISAMPLE_ELSET2104
  *Elset, elset=ASSEMBLY_ISAMPLE_ELSET2105
  *Elset, elset=ASSEMBLY_ISAMPLE_ELSET2106
  *Elset, elset=ASSEMBLY_ISAMPLE_ELSET2107
  *Elset, elset=ASSEMBLY_ISAMPLE_ELSET2108
  *Elset, elset=ASSEMBLY_ISAMPLE_ELSET2109
  *Elset, elset=ASSEMBLY_ISAMPLE_ELSET211
  *Elset, elset=ASSEMBLY_ISAMPLE_ELSET2110
  *Elset, elset=ASSEMBLY_ISAMPLE_ELSET2111
  *Elset, elset=ASSEMBLY_ISAMPLE_ELSET2112
  *Elset, elset=ASSEMBLY_ISAMPLE_ELSET2113
  *Elset, elset=ASSEMBLY_ISAMPLE_ELSET2114
  *Elset, elset=ASSEMBLY_ISAMPLE_ELSET2115
  *Elset, elset=ASSEMBLY_ISAMPLE_ELSET2116
  *Elset, elset=ASSEMBLY_ISAMPLE_ELSET2117
  *Elset, elset=ASSEMBLY_ISAMPLE_ELSET2118
  *Elset, elset=ASSEMBLY_ISAMPLE_ELSET2119
  *Elset, elset=ASSEMBLY_ISAMPLE_ELSET212
  *Elset, elset=ASSEMBLY_ISAMPLE_ELSET2120
  *Elset, elset=ASSEMBLY_ISAMPLE_ELSET2121
  *Elset, elset=ASSEMBLY_ISAMPLE_ELSET2122
  *Elset, elset=ASSEMBLY_ISAMPLE_ELSET2123
  *Elset, elset=ASSEMBLY_ISAMPLE_ELSET2124
  *Elset, elset=ASSEMBLY_ISAMPLE_ELSET2125
  *Elset, elset=ASSEMBLY_ISAMPLE_ELSET2126
  *Elset, elset=ASSEMBLY_ISAMPLE_ELSET2127
  *Elset, elset=ASSEMBLY_ISAMPLE_ELSET2128
  *Elset, elset=ASSEMBLY_ISAMPLE_ELSET2129
  *Elset, elset=ASSEMBLY_ISAMPLE_ELSET213
  *Elset, elset=ASSEMBLY_ISAMPLE_ELSET2130
  *Elset, elset=ASSEMBLY_ISAMPLE_ELSET2131
  *Elset, elset=ASSEMBLY_ISAMPLE_ELSET2132
  *Elset, elset=ASSEMBLY_ISAMPLE_ELSET2133
  *Elset, elset=ASSEMBLY_ISAMPLE_ELSET2134
  *Elset, elset=ASSEMBLY_ISAMPLE_ELSET2135
  *Elset, elset=ASSEMBLY_ISAMPLE_ELSET2136
  *Elset, elset=ASSEMBLY_ISAMPLE_ELSET2137
  *Elset, elset=ASSEMBLY_ISAMPLE_ELSET2138
  *Elset, elset=ASSEMBLY_ISAMPLE_ELSET2139
  *Elset, elset=ASSEMBLY_ISAMPLE_ELSET214
  *Elset, elset=ASSEMBLY_ISAMPLE_ELSET2140
  *Elset, elset=ASSEMBLY_ISAMPLE_ELSET2141
  *Elset, elset=ASSEMBLY_ISAMPLE_ELSET2142
  *Elset, elset=ASSEMBLY_ISAMPLE_ELSET2143
  *Elset, elset=ASSEMBLY_ISAMPLE_ELSET2144
  *Elset, elset=ASSEMBLY_ISAMPLE_ELSET2145
  *Elset, elset=ASSEMBLY_ISAMPLE_ELSET2146
  *Elset, elset=ASSEMBLY_ISAMPLE_ELSET2147
  *Elset, elset=ASSEMBLY_ISAMPLE_ELSET2148
  *Elset, elset=ASSEMBLY_ISAMPLE_ELSET2149
  *Elset, elset=ASSEMBLY_ISAMPLE_ELSET215
  *Elset, elset=ASSEMBLY_ISAMPLE_ELSET2150
  *Elset, elset=ASSEMBLY_ISAMPLE_ELSET2151
  *Elset, elset=ASSEMBLY_ISAMPLE_ELSET2152
  *Elset, elset=ASSEMBLY_ISAMPLE_ELSET2153
  *Elset, elset=ASSEMBLY_ISAMPLE_ELSET2154
  *Elset, elset=ASSEMBLY_ISAMPLE_ELSET2155
  *Elset, elset=ASSEMBLY_ISAMPLE_ELSET2156
  *Elset, elset=ASSEMBLY_ISAMPLE_ELSET2157
  *Elset, elset=ASSEMBLY_ISAMPLE_ELSET2158
  *Elset, elset=ASSEMBLY_ISAMPLE_ELSET2159
  *Elset, elset=ASSEMBLY_ISAMPLE_ELSET216
  *Elset, elset=ASSEMBLY_ISAMPLE_ELSET2160
  *Elset, elset=ASSEMBLY_ISAMPLE_ELSET2161
  *Elset, elset=ASSEMBLY_ISAMPLE_ELSET2162
  *Elset, elset=ASSEMBLY_ISAMPLE_ELSET2163
  *Elset, elset=ASSEMBLY_ISAMPLE_ELSET2164
  *Elset, elset=ASSEMBLY_ISAMPLE_ELSET2165
  *Elset, elset=ASSEMBLY_ISAMPLE_ELSET2166
  *Elset, elset=ASSEMBLY_ISAMPLE_ELSET2167
  *Elset, elset=ASSEMBLY_ISAMPLE_ELSET2168
  *Elset, elset=ASSEMBLY_ISAMPLE_ELSET2169
  *Elset, elset=ASSEMBLY_ISAMPLE_ELSET217
  *Elset, elset=ASSEMBLY_ISAMPLE_ELSET2170
  *Elset, elset=ASSEMBLY_ISAMPLE_ELSET2171
  *Elset, elset=ASSEMBLY_ISAMPLE_ELSET2172
  *Elset, elset=ASSEMBLY_ISAMPLE_ELSET2173
  *Elset, elset=ASSEMBLY_ISAMPLE_ELSET2174
  *Elset, elset=ASSEMBLY_ISAMPLE_ELSET2175
  *Elset, elset=ASSEMBLY_ISAMPLE_ELSET2176
  *Elset, elset=ASSEMBLY_ISAMPLE_ELSET2177
  *Elset, elset=ASSEMBLY_ISAMPLE_ELSET2178
  *Elset, elset=ASSEMBLY_ISAMPLE_ELSET2179
  *Elset, elset=ASSEMBLY_ISAMPLE_ELSET218
  *Elset, elset=ASSEMBLY_ISAMPLE_ELSET2180
  *Elset, elset=ASSEMBLY_ISAMPLE_ELSET2181
  *Elset, elset=ASSEMBLY_ISAMPLE_ELSET2182
  *Elset, elset=ASSEMBLY_ISAMPLE_ELSET2183
  *Elset, elset=ASSEMBLY_ISAMPLE_ELSET2184
  *Elset, elset=ASSEMBLY_ISAMPLE_ELSET2185
  *Elset, elset=ASSEMBLY_ISAMPLE_ELSET2186
  *Elset, elset=ASSEMBLY_ISAMPLE_ELSET2187
  *Elset, elset=ASSEMBLY_ISAMPLE_ELSET2188
  *Elset, elset=ASSEMBLY_ISAMPLE_ELSET2189
  *Elset, elset=ASSEMBLY_ISAMPLE_ELSET219
  *Elset, elset=ASSEMBLY_ISAMPLE_ELSET2190
  *Elset, elset=ASSEMBLY_ISAMPLE_ELSET2191
  *Elset, elset=ASSEMBLY_ISAMPLE_ELSET2192
  *Elset, elset=ASSEMBLY_ISAMPLE_ELSET2193
  *Elset, elset=ASSEMBLY_ISAMPLE_ELSET2194
  *Elset, elset=ASSEMBLY_ISAMPLE_ELSET2195
  *Elset, elset=ASSEMBLY_ISAMPLE_ELSET2196
  *Elset, elset=ASSEMBLY_ISAMPLE_ELSET2197
  *Elset, elset=ASSEMBLY_ISAMPLE_ELSET2198
  *Elset, elset=ASSEMBLY_ISAMPLE_ELSET2199
  *Elset, elset=ASSEMBLY_ISAMPLE_ELSET22
  *Elset, elset=ASSEMBLY_ISAMPLE_ELSET220
  *Elset, elset=ASSEMBLY_ISAMPLE_ELSET2200
  *Elset, elset=ASSEMBLY_ISAMPLE_ELSET2201
  *Elset, elset=ASSEMBLY_ISAMPLE_ELSET2202
  *Elset, elset=ASSEMBLY_ISAMPLE_ELSET2203
  *Elset, elset=ASSEMBLY_ISAMPLE_ELSET2204
  *Elset, elset=ASSEMBLY_ISAMPLE_ELSET2205
  *Elset, elset=ASSEMBLY_ISAMPLE_ELSET2206
  *Elset, elset=ASSEMBLY_ISAMPLE_ELSET2207
  *Elset, elset=ASSEMBLY_ISAMPLE_ELSET2208
  *Elset, elset=ASSEMBLY_ISAMPLE_ELSET2209
  *Elset, elset=ASSEMBLY_ISAMPLE_ELSET221
  *Elset, elset=ASSEMBLY_ISAMPLE_ELSET2210
  *Elset, elset=ASSEMBLY_ISAMPLE_ELSET2211
  *Elset, elset=ASSEMBLY_ISAMPLE_ELSET2212
  *Elset, elset=ASSEMBLY_ISAMPLE_ELSET2213
  *Elset, elset=ASSEMBLY_ISAMPLE_ELSET2214
  *Elset, elset=ASSEMBLY_ISAMPLE_ELSET2215
  *Elset, elset=ASSEMBLY_ISAMPLE_ELSET2216
  *Elset, elset=ASSEMBLY_ISAMPLE_ELSET2217
  *Elset, elset=ASSEMBLY_ISAMPLE_ELSET2218
  *Elset, elset=ASSEMBLY_ISAMPLE_ELSET2219
  *Elset, elset=ASSEMBLY_ISAMPLE_ELSET222
  *Elset, elset=ASSEMBLY_ISAMPLE_ELSET2220
  *Elset, elset=ASSEMBLY_ISAMPLE_ELSET2221
  *Elset, elset=ASSEMBLY_ISAMPLE_ELSET2222
  *Elset, elset=ASSEMBLY_ISAMPLE_ELSET2223
  *Elset, elset=ASSEMBLY_ISAMPLE_ELSET2224
  *Elset, elset=ASSEMBLY_ISAMPLE_ELSET2225
  *Elset, elset=ASSEMBLY_ISAMPLE_ELSET2226
  *Elset, elset=ASSEMBLY_ISAMPLE_ELSET2227
  *Elset, elset=ASSEMBLY_ISAMPLE_ELSET2228
  *Elset, elset=ASSEMBLY_ISAMPLE_ELSET2229
  *Elset, elset=ASSEMBLY_ISAMPLE_ELSET223
  *Elset, elset=ASSEMBLY_ISAMPLE_ELSET2230
  *Elset, elset=ASSEMBLY_ISAMPLE_ELSET2231
  *Elset, elset=ASSEMBLY_ISAMPLE_ELSET2232
  *Elset, elset=ASSEMBLY_ISAMPLE_ELSET2233
  *Elset, elset=ASSEMBLY_ISAMPLE_ELSET2234
  *Elset, elset=ASSEMBLY_ISAMPLE_ELSET2235
  *Elset, elset=ASSEMBLY_ISAMPLE_ELSET2236
  *Elset, elset=ASSEMBLY_ISAMPLE_ELSET2237
  *Elset, elset=ASSEMBLY_ISAMPLE_ELSET2238
  *Elset, elset=ASSEMBLY_ISAMPLE_ELSET2239
  *Elset, elset=ASSEMBLY_ISAMPLE_ELSET224
  *Elset, elset=ASSEMBLY_ISAMPLE_ELSET2240
  *Elset, elset=ASSEMBLY_ISAMPLE_ELSET2241
  *Elset, elset=ASSEMBLY_ISAMPLE_ELSET2242
  *Elset, elset=ASSEMBLY_ISAMPLE_ELSET2243
  *Elset, elset=ASSEMBLY_ISAMPLE_ELSET2244
  *Elset, elset=ASSEMBLY_ISAMPLE_ELSET2245
  *Elset, elset=ASSEMBLY_ISAMPLE_ELSET2246
  *Elset, elset=ASSEMBLY_ISAMPLE_ELSET2247
  *Elset, elset=ASSEMBLY_ISAMPLE_ELSET2248
  *Elset, elset=ASSEMBLY_ISAMPLE_ELSET2249
  *Elset, elset=ASSEMBLY_ISAMPLE_ELSET225
  *Elset, elset=ASSEMBLY_ISAMPLE_ELSET2250
  *Elset, elset=ASSEMBLY_ISAMPLE_ELSET2251
  *Elset, elset=ASSEMBLY_ISAMPLE_ELSET2252
  *Elset, elset=ASSEMBLY_ISAMPLE_ELSET2253
  *Elset, elset=ASSEMBLY_ISAMPLE_ELSET2254
  *Elset, elset=ASSEMBLY_ISAMPLE_ELSET2255
  *Elset, elset=ASSEMBLY_ISAMPLE_ELSET2256
  *Elset, elset=ASSEMBLY_ISAMPLE_ELSET2257
  *Elset, elset=ASSEMBLY_ISAMPLE_ELSET2258
  *Elset, elset=ASSEMBLY_ISAMPLE_ELSET2259
  *Elset, elset=ASSEMBLY_ISAMPLE_ELSET226
  *Elset, elset=ASSEMBLY_ISAMPLE_ELSET2260
  *Elset, elset=ASSEMBLY_ISAMPLE_ELSET2261
  *Elset, elset=ASSEMBLY_ISAMPLE_ELSET2262
  *Elset, elset=ASSEMBLY_ISAMPLE_ELSET2263
  *Elset, elset=ASSEMBLY_ISAMPLE_ELSET2264
  *Elset, elset=ASSEMBLY_ISAMPLE_ELSET2265
  *Elset, elset=ASSEMBLY_ISAMPLE_ELSET2266
  *Elset, elset=ASSEMBLY_ISAMPLE_ELSET2267
  *Elset, elset=ASSEMBLY_ISAMPLE_ELSET2268
  *Elset, elset=ASSEMBLY_ISAMPLE_ELSET2269
  *Elset, elset=ASSEMBLY_ISAMPLE_ELSET227
  *Elset, elset=ASSEMBLY_ISAMPLE_ELSET2270
  *Elset, elset=ASSEMBLY_ISAMPLE_ELSET2271
  *Elset, elset=ASSEMBLY_ISAMPLE_ELSET2272
  *Elset, elset=ASSEMBLY_ISAMPLE_ELSET2273
  *Elset, elset=ASSEMBLY_ISAMPLE_ELSET2274
  *Elset, elset=ASSEMBLY_ISAMPLE_ELSET2275
  *Elset, elset=ASSEMBLY_ISAMPLE_ELSET2276
  *Elset, elset=ASSEMBLY_ISAMPLE_ELSET2277
  *Elset, elset=ASSEMBLY_ISAMPLE_ELSET2278
  *Elset, elset=ASSEMBLY_ISAMPLE_ELSET2279
  *Elset, elset=ASSEMBLY_ISAMPLE_ELSET228
  *Elset, elset=ASSEMBLY_ISAMPLE_ELSET2280
  *Elset, elset=ASSEMBLY_ISAMPLE_ELSET2281
  *Elset, elset=ASSEMBLY_ISAMPLE_ELSET2282
  *Elset, elset=ASSEMBLY_ISAMPLE_ELSET2283
  *Elset, elset=ASSEMBLY_ISAMPLE_ELSET2284
  *Elset, elset=ASSEMBLY_ISAMPLE_ELSET2285
  *Elset, elset=ASSEMBLY_ISAMPLE_ELSET2286
  *Elset, elset=ASSEMBLY_ISAMPLE_ELSET2287
  *Elset, elset=ASSEMBLY_ISAMPLE_ELSET2288
  *Elset, elset=ASSEMBLY_ISAMPLE_ELSET2289
  *Elset, elset=ASSEMBLY_ISAMPLE_ELSET229
  *Elset, elset=ASSEMBLY_ISAMPLE_ELSET2290
  *Elset, elset=ASSEMBLY_ISAMPLE_ELSET2291
  *Elset, elset=ASSEMBLY_ISAMPLE_ELSET2292
  *Elset, elset=ASSEMBLY_ISAMPLE_ELSET2293
  *Elset, elset=ASSEMBLY_ISAMPLE_ELSET2294
  *Elset, elset=ASSEMBLY_ISAMPLE_ELSET2295
  *Elset, elset=ASSEMBLY_ISAMPLE_ELSET2296
  *Elset, elset=ASSEMBLY_ISAMPLE_ELSET2297
  *Elset, elset=ASSEMBLY_ISAMPLE_ELSET2298
  *Elset, elset=ASSEMBLY_ISAMPLE_ELSET2299
  *Elset, elset=ASSEMBLY_ISAMPLE_ELSET23
  *Elset, elset=ASSEMBLY_ISAMPLE_ELSET230
  *Elset, elset=ASSEMBLY_ISAMPLE_ELSET2300
  *Elset, elset=ASSEMBLY_ISAMPLE_ELSET2301
  *Elset, elset=ASSEMBLY_ISAMPLE_ELSET2302
  *Elset, elset=ASSEMBLY_ISAMPLE_ELSET2303
  *Elset, elset=ASSEMBLY_ISAMPLE_ELSET2304
  *Elset, elset=ASSEMBLY_ISAMPLE_ELSET2305
  *Elset, elset=ASSEMBLY_ISAMPLE_ELSET2306
  *Elset, elset=ASSEMBLY_ISAMPLE_ELSET2307
  *Elset, elset=ASSEMBLY_ISAMPLE_ELSET2308
  *Elset, elset=ASSEMBLY_ISAMPLE_ELSET2309
  *Elset, elset=ASSEMBLY_ISAMPLE_ELSET231
  *Elset, elset=ASSEMBLY_ISAMPLE_ELSET2310
  *Elset, elset=ASSEMBLY_ISAMPLE_ELSET2311
  *Elset, elset=ASSEMBLY_ISAMPLE_ELSET2312
  *Elset, elset=ASSEMBLY_ISAMPLE_ELSET2313
  *Elset, elset=ASSEMBLY_ISAMPLE_ELSET2314
  *Elset, elset=ASSEMBLY_ISAMPLE_ELSET2315
  *Elset, elset=ASSEMBLY_ISAMPLE_ELSET2316
  *Elset, elset=ASSEMBLY_ISAMPLE_ELSET2317
  *Elset, elset=ASSEMBLY_ISAMPLE_ELSET2318
  *Elset, elset=ASSEMBLY_ISAMPLE_ELSET2319
  *Elset, elset=ASSEMBLY_ISAMPLE_ELSET232
  *Elset, elset=ASSEMBLY_ISAMPLE_ELSET2320
  *Elset, elset=ASSEMBLY_ISAMPLE_ELSET2321
  *Elset, elset=ASSEMBLY_ISAMPLE_ELSET2322
  *Elset, elset=ASSEMBLY_ISAMPLE_ELSET2323
  *Elset, elset=ASSEMBLY_ISAMPLE_ELSET2324
  *Elset, elset=ASSEMBLY_ISAMPLE_ELSET2325
  *Elset, elset=ASSEMBLY_ISAMPLE_ELSET2326
  *Elset, elset=ASSEMBLY_ISAMPLE_ELSET2327
  *Elset, elset=ASSEMBLY_ISAMPLE_ELSET2328
  *Elset, elset=ASSEMBLY_ISAMPLE_ELSET2329
  *Elset, elset=ASSEMBLY_ISAMPLE_ELSET233
  *Elset, elset=ASSEMBLY_ISAMPLE_ELSET2330
  *Elset, elset=ASSEMBLY_ISAMPLE_ELSET2331
  *Elset, elset=ASSEMBLY_ISAMPLE_ELSET2332
  *Elset, elset=ASSEMBLY_ISAMPLE_ELSET2333
  *Elset, elset=ASSEMBLY_ISAMPLE_ELSET2334
  *Elset, elset=ASSEMBLY_ISAMPLE_ELSET2335
  *Elset, elset=ASSEMBLY_ISAMPLE_ELSET2336
  *Elset, elset=ASSEMBLY_ISAMPLE_ELSET2337
  *Elset, elset=ASSEMBLY_ISAMPLE_ELSET2338
  *Elset, elset=ASSEMBLY_ISAMPLE_ELSET2339
  *Elset, elset=ASSEMBLY_ISAMPLE_ELSET234
  *Elset, elset=ASSEMBLY_ISAMPLE_ELSET2340
  *Elset, elset=ASSEMBLY_ISAMPLE_ELSET2341
  *Elset, elset=ASSEMBLY_ISAMPLE_ELSET2342
  *Elset, elset=ASSEMBLY_ISAMPLE_ELSET2343
  *Elset, elset=ASSEMBLY_ISAMPLE_ELSET2344
  *Elset, elset=ASSEMBLY_ISAMPLE_ELSET2345
  *Elset, elset=ASSEMBLY_ISAMPLE_ELSET2346
  *Elset, elset=ASSEMBLY_ISAMPLE_ELSET2347
  *Elset, elset=ASSEMBLY_ISAMPLE_ELSET2348
  *Elset, elset=ASSEMBLY_ISAMPLE_ELSET2349
  *Elset, elset=ASSEMBLY_ISAMPLE_ELSET235
  *Elset, elset=ASSEMBLY_ISAMPLE_ELSET2350
  *Elset, elset=ASSEMBLY_ISAMPLE_ELSET2351
  *Elset, elset=ASSEMBLY_ISAMPLE_ELSET2352
  *Elset, elset=ASSEMBLY_ISAMPLE_ELSET2353
  *Elset, elset=ASSEMBLY_ISAMPLE_ELSET2354
  *Elset, elset=ASSEMBLY_ISAMPLE_ELSET2355
  *Elset, elset=ASSEMBLY_ISAMPLE_ELSET2356
  *Elset, elset=ASSEMBLY_ISAMPLE_ELSET2357
  *Elset, elset=ASSEMBLY_ISAMPLE_ELSET2358
  *Elset, elset=ASSEMBLY_ISAMPLE_ELSET2359
  *Elset, elset=ASSEMBLY_ISAMPLE_ELSET236
  *Elset, elset=ASSEMBLY_ISAMPLE_ELSET2360
  *Elset, elset=ASSEMBLY_ISAMPLE_ELSET2361
  *Elset, elset=ASSEMBLY_ISAMPLE_ELSET2362
  *Elset, elset=ASSEMBLY_ISAMPLE_ELSET2363
  *Elset, elset=ASSEMBLY_ISAMPLE_ELSET2364
  *Elset, elset=ASSEMBLY_ISAMPLE_ELSET2365
  *Elset, elset=ASSEMBLY_ISAMPLE_ELSET2366
  *Elset, elset=ASSEMBLY_ISAMPLE_ELSET2367
  *Elset, elset=ASSEMBLY_ISAMPLE_ELSET2368
  *Elset, elset=ASSEMBLY_ISAMPLE_ELSET2369
  *Elset, elset=ASSEMBLY_ISAMPLE_ELSET237
  *Elset, elset=ASSEMBLY_ISAMPLE_ELSET2370
  *Elset, elset=ASSEMBLY_ISAMPLE_ELSET2371
  *Elset, elset=ASSEMBLY_ISAMPLE_ELSET2372
  *Elset, elset=ASSEMBLY_ISAMPLE_ELSET2373
  *Elset, elset=ASSEMBLY_ISAMPLE_ELSET2374
  *Elset, elset=ASSEMBLY_ISAMPLE_ELSET2375
  *Elset, elset=ASSEMBLY_ISAMPLE_ELSET2376
  *Elset, elset=ASSEMBLY_ISAMPLE_ELSET2377
  *Elset, elset=ASSEMBLY_ISAMPLE_ELSET2378
  *Elset, elset=ASSEMBLY_ISAMPLE_ELSET2379
  *Elset, elset=ASSEMBLY_ISAMPLE_ELSET238
  *Elset, elset=ASSEMBLY_ISAMPLE_ELSET2380
  *Elset, elset=ASSEMBLY_ISAMPLE_ELSET2381
  *Elset, elset=ASSEMBLY_ISAMPLE_ELSET2382
  *Elset, elset=ASSEMBLY_ISAMPLE_ELSET2383
  *Elset, elset=ASSEMBLY_ISAMPLE_ELSET2384
  *Elset, elset=ASSEMBLY_ISAMPLE_ELSET2385
  *Elset, elset=ASSEMBLY_ISAMPLE_ELSET2386
  *Elset, elset=ASSEMBLY_ISAMPLE_ELSET2387
  *Elset, elset=ASSEMBLY_ISAMPLE_ELSET2388
  *Elset, elset=ASSEMBLY_ISAMPLE_ELSET2389
  *Elset, elset=ASSEMBLY_ISAMPLE_ELSET239
  *Elset, elset=ASSEMBLY_ISAMPLE_ELSET2390
  *Elset, elset=ASSEMBLY_ISAMPLE_ELSET2391
  *Elset, elset=ASSEMBLY_ISAMPLE_ELSET2392
  *Elset, elset=ASSEMBLY_ISAMPLE_ELSET2393
  *Elset, elset=ASSEMBLY_ISAMPLE_ELSET2394
  *Elset, elset=ASSEMBLY_ISAMPLE_ELSET2395
  *Elset, elset=ASSEMBLY_ISAMPLE_ELSET2396
  *Elset, elset=ASSEMBLY_ISAMPLE_ELSET2397
  *Elset, elset=ASSEMBLY_ISAMPLE_ELSET2398
  *Elset, elset=ASSEMBLY_ISAMPLE_ELSET2399
  *Elset, elset=ASSEMBLY_ISAMPLE_ELSET24
  *Elset, elset=ASSEMBLY_ISAMPLE_ELSET240
  *Elset, elset=ASSEMBLY_ISAMPLE_ELSET2400
  *Elset, elset=ASSEMBLY_ISAMPLE_ELSET2401
  *Elset, elset=ASSEMBLY_ISAMPLE_ELSET2402
  *Elset, elset=ASSEMBLY_ISAMPLE_ELSET2403
  *Elset, elset=ASSEMBLY_ISAMPLE_ELSET2404
  *Elset, elset=ASSEMBLY_ISAMPLE_ELSET2405
  *Elset, elset=ASSEMBLY_ISAMPLE_ELSET2406
  *Elset, elset=ASSEMBLY_ISAMPLE_ELSET2407
  *Elset, elset=ASSEMBLY_ISAMPLE_ELSET2408
  *Elset, elset=ASSEMBLY_ISAMPLE_ELSET2409
  *Elset, elset=ASSEMBLY_ISAMPLE_ELSET241
  *Elset, elset=ASSEMBLY_ISAMPLE_ELSET2410
  *Elset, elset=ASSEMBLY_ISAMPLE_ELSET2411
  *Elset, elset=ASSEMBLY_ISAMPLE_ELSET2412
  *Elset, elset=ASSEMBLY_ISAMPLE_ELSET2413
  *Elset, elset=ASSEMBLY_ISAMPLE_ELSET2414
  *Elset, elset=ASSEMBLY_ISAMPLE_ELSET2415
  *Elset, elset=ASSEMBLY_ISAMPLE_ELSET2416
  *Elset, elset=ASSEMBLY_ISAMPLE_ELSET2417
  *Elset, elset=ASSEMBLY_ISAMPLE_ELSET2418
  *Elset, elset=ASSEMBLY_ISAMPLE_ELSET2419
  *Elset, elset=ASSEMBLY_ISAMPLE_ELSET242
  *Elset, elset=ASSEMBLY_ISAMPLE_ELSET2420
  *Elset, elset=ASSEMBLY_ISAMPLE_ELSET2421
  *Elset, elset=ASSEMBLY_ISAMPLE_ELSET2422
  *Elset, elset=ASSEMBLY_ISAMPLE_ELSET2423
  *Elset, elset=ASSEMBLY_ISAMPLE_ELSET2424
  *Elset, elset=ASSEMBLY_ISAMPLE_ELSET2425
  *Elset, elset=ASSEMBLY_ISAMPLE_ELSET2426
  *Elset, elset=ASSEMBLY_ISAMPLE_ELSET2427
  *Elset, elset=ASSEMBLY_ISAMPLE_ELSET2428
  *Elset, elset=ASSEMBLY_ISAMPLE_ELSET2429
  *Elset, elset=ASSEMBLY_ISAMPLE_ELSET243
  *Elset, elset=ASSEMBLY_ISAMPLE_ELSET2430
  *Elset, elset=ASSEMBLY_ISAMPLE_ELSET2431
  *Elset, elset=ASSEMBLY_ISAMPLE_ELSET2432
  *Elset, elset=ASSEMBLY_ISAMPLE_ELSET2433
  *Elset, elset=ASSEMBLY_ISAMPLE_ELSET2434
  *Elset, elset=ASSEMBLY_ISAMPLE_ELSET2435
  *Elset, elset=ASSEMBLY_ISAMPLE_ELSET2436
  *Elset, elset=ASSEMBLY_ISAMPLE_ELSET2437
  *Elset, elset=ASSEMBLY_ISAMPLE_ELSET2438
  *Elset, elset=ASSEMBLY_ISAMPLE_ELSET2439
  *Elset, elset=ASSEMBLY_ISAMPLE_ELSET244
  *Elset, elset=ASSEMBLY_ISAMPLE_ELSET2440
  *Elset, elset=ASSEMBLY_ISAMPLE_ELSET2441
  *Elset, elset=ASSEMBLY_ISAMPLE_ELSET2442
  *Elset, elset=ASSEMBLY_ISAMPLE_ELSET2443
  *Elset, elset=ASSEMBLY_ISAMPLE_ELSET2444
  *Elset, elset=ASSEMBLY_ISAMPLE_ELSET2445
  *Elset, elset=ASSEMBLY_ISAMPLE_ELSET2446
  *Elset, elset=ASSEMBLY_ISAMPLE_ELSET2447
  *Elset, elset=ASSEMBLY_ISAMPLE_ELSET2448
  *Elset, elset=ASSEMBLY_ISAMPLE_ELSET2449
  *Elset, elset=ASSEMBLY_ISAMPLE_ELSET245
  *Elset, elset=ASSEMBLY_ISAMPLE_ELSET2450
  *Elset, elset=ASSEMBLY_ISAMPLE_ELSET2451
  *Elset, elset=ASSEMBLY_ISAMPLE_ELSET2452
  *Elset, elset=ASSEMBLY_ISAMPLE_ELSET2453
  *Elset, elset=ASSEMBLY_ISAMPLE_ELSET2454
  *Elset, elset=ASSEMBLY_ISAMPLE_ELSET2455
  *Elset, elset=ASSEMBLY_ISAMPLE_ELSET2456
  *Elset, elset=ASSEMBLY_ISAMPLE_ELSET2457
  *Elset, elset=ASSEMBLY_ISAMPLE_ELSET2458
  *Elset, elset=ASSEMBLY_ISAMPLE_ELSET2459
  *Elset, elset=ASSEMBLY_ISAMPLE_ELSET246
  *Elset, elset=ASSEMBLY_ISAMPLE_ELSET2460
  *Elset, elset=ASSEMBLY_ISAMPLE_ELSET2461
  *Elset, elset=ASSEMBLY_ISAMPLE_ELSET2462
  *Elset, elset=ASSEMBLY_ISAMPLE_ELSET2463
  *Elset, elset=ASSEMBLY_ISAMPLE_ELSET2464
  *Elset, elset=ASSEMBLY_ISAMPLE_ELSET2465
  *Elset, elset=ASSEMBLY_ISAMPLE_ELSET2466
  *Elset, elset=ASSEMBLY_ISAMPLE_ELSET2467
  *Elset, elset=ASSEMBLY_ISAMPLE_ELSET2468
  *Elset, elset=ASSEMBLY_ISAMPLE_ELSET2469
  *Elset, elset=ASSEMBLY_ISAMPLE_ELSET247
  *Elset, elset=ASSEMBLY_ISAMPLE_ELSET2470
  *Elset, elset=ASSEMBLY_ISAMPLE_ELSET2471
  *Elset, elset=ASSEMBLY_ISAMPLE_ELSET2472
  *Elset, elset=ASSEMBLY_ISAMPLE_ELSET2473
  *Elset, elset=ASSEMBLY_ISAMPLE_ELSET2474
  *Elset, elset=ASSEMBLY_ISAMPLE_ELSET2475
  *Elset, elset=ASSEMBLY_ISAMPLE_ELSET2476
  *Elset, elset=ASSEMBLY_ISAMPLE_ELSET2477
  *Elset, elset=ASSEMBLY_ISAMPLE_ELSET2478
  *Elset, elset=ASSEMBLY_ISAMPLE_ELSET2479
  *Elset, elset=ASSEMBLY_ISAMPLE_ELSET248
  *Elset, elset=ASSEMBLY_ISAMPLE_ELSET2480
  *Elset, elset=ASSEMBLY_ISAMPLE_ELSET2481
  *Elset, elset=ASSEMBLY_ISAMPLE_ELSET2482
  *Elset, elset=ASSEMBLY_ISAMPLE_ELSET2483
  *Elset, elset=ASSEMBLY_ISAMPLE_ELSET2484
  *Elset, elset=ASSEMBLY_ISAMPLE_ELSET2485
  *Elset, elset=ASSEMBLY_ISAMPLE_ELSET2486
  *Elset, elset=ASSEMBLY_ISAMPLE_ELSET2487
  *Elset, elset=ASSEMBLY_ISAMPLE_ELSET2488
  *Elset, elset=ASSEMBLY_ISAMPLE_ELSET2489
  *Elset, elset=ASSEMBLY_ISAMPLE_ELSET249
  *Elset, elset=ASSEMBLY_ISAMPLE_ELSET2490
  *Elset, elset=ASSEMBLY_ISAMPLE_ELSET2491
  *Elset, elset=ASSEMBLY_ISAMPLE_ELSET2492
  *Elset, elset=ASSEMBLY_ISAMPLE_ELSET2493
  *Elset, elset=ASSEMBLY_ISAMPLE_ELSET2494
  *Elset, elset=ASSEMBLY_ISAMPLE_ELSET2495
  *Elset, elset=ASSEMBLY_ISAMPLE_ELSET2496
  *Elset, elset=ASSEMBLY_ISAMPLE_ELSET2497
  *Elset, elset=ASSEMBLY_ISAMPLE_ELSET2498
  *Elset, elset=ASSEMBLY_ISAMPLE_ELSET2499
  *Elset, elset=ASSEMBLY_ISAMPLE_ELSET25
  *Elset, elset=ASSEMBLY_ISAMPLE_ELSET250
  *Elset, elset=ASSEMBLY_ISAMPLE_ELSET2500
  *Elset, elset=ASSEMBLY_ISAMPLE_ELSET2501
  *Elset, elset=ASSEMBLY_ISAMPLE_ELSET2502
  *Elset, elset=ASSEMBLY_ISAMPLE_ELSET2503
  *Elset, elset=ASSEMBLY_ISAMPLE_ELSET2504
  *Elset, elset=ASSEMBLY_ISAMPLE_ELSET2505
  *Elset, elset=ASSEMBLY_ISAMPLE_ELSET2506
  *Elset, elset=ASSEMBLY_ISAMPLE_ELSET2507
  *Elset, elset=ASSEMBLY_ISAMPLE_ELSET2508
  *Elset, elset=ASSEMBLY_ISAMPLE_ELSET2509
  *Elset, elset=ASSEMBLY_ISAMPLE_ELSET251
  *Elset, elset=ASSEMBLY_ISAMPLE_ELSET2510
  *Elset, elset=ASSEMBLY_ISAMPLE_ELSET2511
  *Elset, elset=ASSEMBLY_ISAMPLE_ELSET2512
  *Elset, elset=ASSEMBLY_ISAMPLE_ELSET2513
  *Elset, elset=ASSEMBLY_ISAMPLE_ELSET2514
  *Elset, elset=ASSEMBLY_ISAMPLE_ELSET2515
  *Elset, elset=ASSEMBLY_ISAMPLE_ELSET2516
  *Elset, elset=ASSEMBLY_ISAMPLE_ELSET2517
  *Elset, elset=ASSEMBLY_ISAMPLE_ELSET2518
  *Elset, elset=ASSEMBLY_ISAMPLE_ELSET2519
  *Elset, elset=ASSEMBLY_ISAMPLE_ELSET252
  *Elset, elset=ASSEMBLY_ISAMPLE_ELSET2520
  *Elset, elset=ASSEMBLY_ISAMPLE_ELSET2521
  *Elset, elset=ASSEMBLY_ISAMPLE_ELSET2522
  *Elset, elset=ASSEMBLY_ISAMPLE_ELSET2523
  *Elset, elset=ASSEMBLY_ISAMPLE_ELSET2524
  *Elset, elset=ASSEMBLY_ISAMPLE_ELSET2525
  *Elset, elset=ASSEMBLY_ISAMPLE_ELSET2526
  *Elset, elset=ASSEMBLY_ISAMPLE_ELSET2527
  *Elset, elset=ASSEMBLY_ISAMPLE_ELSET2528
  *Elset, elset=ASSEMBLY_ISAMPLE_ELSET2529
  *Elset, elset=ASSEMBLY_ISAMPLE_ELSET253
  *Elset, elset=ASSEMBLY_ISAMPLE_ELSET2530
  *Elset, elset=ASSEMBLY_ISAMPLE_ELSET2531
  *Elset, elset=ASSEMBLY_ISAMPLE_ELSET2532
  *Elset, elset=ASSEMBLY_ISAMPLE_ELSET2533
  *Elset, elset=ASSEMBLY_ISAMPLE_ELSET2534
  *Elset, elset=ASSEMBLY_ISAMPLE_ELSET2535
  *Elset, elset=ASSEMBLY_ISAMPLE_ELSET2536
  *Elset, elset=ASSEMBLY_ISAMPLE_ELSET2537
  *Elset, elset=ASSEMBLY_ISAMPLE_ELSET2538
  *Elset, elset=ASSEMBLY_ISAMPLE_ELSET2539
  *Elset, elset=ASSEMBLY_ISAMPLE_ELSET254
  *Elset, elset=ASSEMBLY_ISAMPLE_ELSET2540
  *Elset, elset=ASSEMBLY_ISAMPLE_ELSET2541
  *Elset, elset=ASSEMBLY_ISAMPLE_ELSET2542
  *Elset, elset=ASSEMBLY_ISAMPLE_ELSET2543
  *Elset, elset=ASSEMBLY_ISAMPLE_ELSET2544
  *Elset, elset=ASSEMBLY_ISAMPLE_ELSET2545
  *Elset, elset=ASSEMBLY_ISAMPLE_ELSET2546
  *Elset, elset=ASSEMBLY_ISAMPLE_ELSET2547
  *Elset, elset=ASSEMBLY_ISAMPLE_ELSET2548
  *Elset, elset=ASSEMBLY_ISAMPLE_ELSET2549
  *Elset, elset=ASSEMBLY_ISAMPLE_ELSET255
  *Elset, elset=ASSEMBLY_ISAMPLE_ELSET2550
  *Elset, elset=ASSEMBLY_ISAMPLE_ELSET2551
  *Elset, elset=ASSEMBLY_ISAMPLE_ELSET2552
  *Elset, elset=ASSEMBLY_ISAMPLE_ELSET2553
  *Elset, elset=ASSEMBLY_ISAMPLE_ELSET2554
  *Elset, elset=ASSEMBLY_ISAMPLE_ELSET2555
  *Elset, elset=ASSEMBLY_ISAMPLE_ELSET2556
  *Elset, elset=ASSEMBLY_ISAMPLE_ELSET2557
  *Elset, elset=ASSEMBLY_ISAMPLE_ELSET2558
  *Elset, elset=ASSEMBLY_ISAMPLE_ELSET2559
  *Elset, elset=ASSEMBLY_ISAMPLE_ELSET256
  *Elset, elset=ASSEMBLY_ISAMPLE_ELSET2560
  *Elset, elset=ASSEMBLY_ISAMPLE_ELSET2561
  *Elset, elset=ASSEMBLY_ISAMPLE_ELSET2562
  *Elset, elset=ASSEMBLY_ISAMPLE_ELSET2563
  *Elset, elset=ASSEMBLY_ISAMPLE_ELSET2564
  *Elset, elset=ASSEMBLY_ISAMPLE_ELSET2565
  *Elset, elset=ASSEMBLY_ISAMPLE_ELSET2566
  *Elset, elset=ASSEMBLY_ISAMPLE_ELSET2567
  *Elset, elset=ASSEMBLY_ISAMPLE_ELSET2568
  *Elset, elset=ASSEMBLY_ISAMPLE_ELSET2569
  *Elset, elset=ASSEMBLY_ISAMPLE_ELSET257
  *Elset, elset=ASSEMBLY_ISAMPLE_ELSET2570
  *Elset, elset=ASSEMBLY_ISAMPLE_ELSET2571
  *Elset, elset=ASSEMBLY_ISAMPLE_ELSET2572
  *Elset, elset=ASSEMBLY_ISAMPLE_ELSET2573
  *Elset, elset=ASSEMBLY_ISAMPLE_ELSET2574
  *Elset, elset=ASSEMBLY_ISAMPLE_ELSET2575
  *Elset, elset=ASSEMBLY_ISAMPLE_ELSET2576
  *Elset, elset=ASSEMBLY_ISAMPLE_ELSET2577
  *Elset, elset=ASSEMBLY_ISAMPLE_ELSET2578
  *Elset, elset=ASSEMBLY_ISAMPLE_ELSET2579
  *Elset, elset=ASSEMBLY_ISAMPLE_ELSET258
  *Elset, elset=ASSEMBLY_ISAMPLE_ELSET2580
  *Elset, elset=ASSEMBLY_ISAMPLE_ELSET2581
  *Elset, elset=ASSEMBLY_ISAMPLE_ELSET2582
  *Elset, elset=ASSEMBLY_ISAMPLE_ELSET2583
  *Elset, elset=ASSEMBLY_ISAMPLE_ELSET2584
  *Elset, elset=ASSEMBLY_ISAMPLE_ELSET2585
  *Elset, elset=ASSEMBLY_ISAMPLE_ELSET2586
  *Elset, elset=ASSEMBLY_ISAMPLE_ELSET2587
  *Elset, elset=ASSEMBLY_ISAMPLE_ELSET2588
  *Elset, elset=ASSEMBLY_ISAMPLE_ELSET2589
  *Elset, elset=ASSEMBLY_ISAMPLE_ELSET259
  *Elset, elset=ASSEMBLY_ISAMPLE_ELSET2590
  *Elset, elset=ASSEMBLY_ISAMPLE_ELSET2591
  *Elset, elset=ASSEMBLY_ISAMPLE_ELSET2592
  *Elset, elset=ASSEMBLY_ISAMPLE_ELSET2593
[...]
  *solidsection, elset=ASSEMBLY_ISAMPLE_ELSET7802, material=MAT_7802
  *solidsection, elset=ASSEMBLY_ISAMPLE_ELSET7803, material=MAT_7803
  *solidsection, elset=ASSEMBLY_ISAMPLE_ELSET7804, material=MAT_7804
  *solidsection, elset=ASSEMBLY_ISAMPLE_ELSET7805, material=MAT_7805
  *solidsection, elset=ASSEMBLY_ISAMPLE_ELSET7806, material=MAT_7806
  *solidsection, elset=ASSEMBLY_ISAMPLE_ELSET7807, material=MAT_7807
  *solidsection, elset=ASSEMBLY_ISAMPLE_ELSET7808, material=MAT_7808
  *solidsection, elset=ASSEMBLY_ISAMPLE_ELSET7809, material=MAT_7809
  *solidsection, elset=ASSEMBLY_ISAMPLE_ELSET7810, material=MAT_7810
  *solidsection, elset=ASSEMBLY_ISAMPLE_ELSET7811, material=MAT_7811
  *solidsection, elset=ASSEMBLY_ISAMPLE_ELSET7812, material=MAT_7812
  *solidsection, elset=ASSEMBLY_ISAMPLE_ELSET7813, material=MAT_7813
  *solidsection, elset=ASSEMBLY_ISAMPLE_ELSET7814, material=MAT_7814
  *solidsection, elset=ASSEMBLY_ISAMPLE_ELSET7815, material=MAT_7815
  *solidsection, elset=ASSEMBLY_ISAMPLE_ELSET7816, material=MAT_7816
  *solidsection, elset=ASSEMBLY_ISAMPLE_ELSET7817, material=MAT_7817
  *solidsection, elset=ASSEMBLY_ISAMPLE_ELSET7818, material=MAT_7818
  *solidsection, elset=ASSEMBLY_ISAMPLE_ELSET7819, material=MAT_7819
  *solidsection, elset=ASSEMBLY_ISAMPLE_ELSET7820, material=MAT_7820
  *solidsection, elset=ASSEMBLY_ISAMPLE_ELSET7821, material=MAT_7821
  *solidsection, elset=ASSEMBLY_ISAMPLE_ELSET7822, material=MAT_7822
  *solidsection, elset=ASSEMBLY_ISAMPLE_ELSET7823, material=MAT_7823
  *solidsection, elset=ASSEMBLY_ISAMPLE_ELSET7824, material=MAT_7824
  *solidsection, elset=ASSEMBLY_ISAMPLE_ELSET7825, material=MAT_7825
  *solidsection, elset=ASSEMBLY_ISAMPLE_ELSET7826, material=MAT_7826
  *solidsection, elset=ASSEMBLY_ISAMPLE_ELSET7827, material=MAT_7827
  *solidsection, elset=ASSEMBLY_ISAMPLE_ELSET7828, material=MAT_7828
  *solidsection, elset=ASSEMBLY_ISAMPLE_ELSET7829, material=MAT_7829
  *solidsection, elset=ASSEMBLY_ISAMPLE_ELSET7830, material=MAT_7830
  *solidsection, elset=ASSEMBLY_ISAMPLE_ELSET7831, material=MAT_7831
  *solidsection, elset=ASSEMBLY_ISAMPLE_ELSET7832, material=MAT_7832
  *solidsection, elset=ASSEMBLY_ISAMPLE_ELSET7833, material=MAT_7833
  *solidsection, elset=ASSEMBLY_ISAMPLE_ELSET7834, material=MAT_7834
  *solidsection, elset=ASSEMBLY_ISAMPLE_ELSET7835, material=MAT_7835
  *solidsection, elset=ASSEMBLY_ISAMPLE_ELSET7836, material=MAT_7836
  *solidsection, elset=ASSEMBLY_ISAMPLE_ELSET7837, material=MAT_7837
  *solidsection, elset=ASSEMBLY_ISAMPLE_ELSET7838, material=MAT_7838
  *solidsection, elset=ASSEMBLY_ISAMPLE_ELSET7839, material=MAT_7839
  *solidsection, elset=ASSEMBLY_ISAMPLE_ELSET7840, material=MAT_7840
  *solidsection, elset=ASSEMBLY_ISAMPLE_ELSET7841, material=MAT_7841
  *solidsection, elset=ASSEMBLY_ISAMPLE_ELSET7842, material=MAT_7842
  *solidsection, elset=ASSEMBLY_ISAMPLE_ELSET7843, material=MAT_7843
  *solidsection, elset=ASSEMBLY_ISAMPLE_ELSET7844, material=MAT_7844
  *solidsection, elset=ASSEMBLY_ISAMPLE_ELSET7845, material=MAT_7845
  *solidsection, elset=ASSEMBLY_ISAMPLE_ELSET7846, material=MAT_7846
  *solidsection, elset=ASSEMBLY_ISAMPLE_ELSET7847, material=MAT_7847
  *solidsection, elset=ASSEMBLY_ISAMPLE_ELSET7848, material=MAT_7848
  *solidsection, elset=ASSEMBLY_ISAMPLE_ELSET7849, material=MAT_7849
  *solidsection, elset=ASSEMBLY_ISAMPLE_ELSET7850, material=MAT_7850
  *solidsection, elset=ASSEMBLY_ISAMPLE_ELSET7851, material=MAT_7851
  *solidsection, elset=ASSEMBLY_ISAMPLE_ELSET7852, material=MAT_7852
  *solidsection, elset=ASSEMBLY_ISAMPLE_ELSET7853, material=MAT_7853
  *solidsection, elset=ASSEMBLY_ISAMPLE_ELSET7854, material=MAT_7854
  *solidsection, elset=ASSEMBLY_ISAMPLE_ELSET7855, material=MAT_7855
  *solidsection, elset=ASSEMBLY_ISAMPLE_ELSET7856, material=MAT_7856
  *solidsection, elset=ASSEMBLY_ISAMPLE_ELSET7857, material=MAT_7857
  *solidsection, elset=ASSEMBLY_ISAMPLE_ELSET7858, material=MAT_7858
  *solidsection, elset=ASSEMBLY_ISAMPLE_ELSET7859, material=MAT_7859
  *solidsection, elset=ASSEMBLY_ISAMPLE_ELSET7860, material=MAT_7860
  *solidsection, elset=ASSEMBLY_ISAMPLE_ELSET7861, material=MAT_7861
  *solidsection, elset=ASSEMBLY_ISAMPLE_ELSET7862, material=MAT_7862
  *solidsection, elset=ASSEMBLY_ISAMPLE_ELSET7863, material=MAT_7863
  *solidsection, elset=ASSEMBLY_ISAMPLE_ELSET7864, material=MAT_7864
  *solidsection, elset=ASSEMBLY_ISAMPLE_ELSET7865, material=MAT_7865
  *solidsection, elset=ASSEMBLY_ISAMPLE_ELSET7866, material=MAT_7866
  *solidsection, elset=ASSEMBLY_ISAMPLE_ELSET7867, material=MAT_7867
  *solidsection, elset=ASSEMBLY_ISAMPLE_ELSET7868, material=MAT_7868
  *solidsection, elset=ASSEMBLY_ISAMPLE_ELSET7869, material=MAT_7869
  *solidsection, elset=ASSEMBLY_ISAMPLE_ELSET7870, material=MAT_7870
  *solidsection, elset=ASSEMBLY_ISAMPLE_ELSET7871, material=MAT_7871
  *solidsection, elset=ASSEMBLY_ISAMPLE_ELSET7872, material=MAT_7872
  *solidsection, elset=ASSEMBLY_ISAMPLE_ELSET7873, material=MAT_7873
  *solidsection, elset=ASSEMBLY_ISAMPLE_ELSET7874, material=MAT_7874
  *solidsection, elset=ASSEMBLY_ISAMPLE_ELSET7875, material=MAT_7875
  *solidsection, elset=ASSEMBLY_ISAMPLE_ELSET7876, material=MAT_7876
  *solidsection, elset=ASSEMBLY_ISAMPLE_ELSET7877, material=MAT_7877
  *solidsection, elset=ASSEMBLY_ISAMPLE_ELSET7878, material=MAT_7878
  *solidsection, elset=ASSEMBLY_ISAMPLE_ELSET7879, material=MAT_7879
  *solidsection, elset=ASSEMBLY_ISAMPLE_ELSET7880, material=MAT_7880
  *solidsection, elset=ASSEMBLY_ISAMPLE_ELSET7881, material=MAT_7881
  *solidsection, elset=ASSEMBLY_ISAMPLE_ELSET7882, material=MAT_7882
  *solidsection, elset=ASSEMBLY_ISAMPLE_ELSET7883, material=MAT_7883
  *solidsection, elset=ASSEMBLY_ISAMPLE_ELSET7884, material=MAT_7884
  *solidsection, elset=ASSEMBLY_ISAMPLE_ELSET7885, material=MAT_7885
  *solidsection, elset=ASSEMBLY_ISAMPLE_ELSET7886, material=MAT_7886
  *solidsection, elset=ASSEMBLY_ISAMPLE_ELSET7887, material=MAT_7887
  *solidsection, elset=ASSEMBLY_ISAMPLE_ELSET7888, material=MAT_7888
  *solidsection, elset=ASSEMBLY_ISAMPLE_ELSET7889, material=MAT_7889
  *solidsection, elset=ASSEMBLY_ISAMPLE_ELSET7890, material=MAT_7890
  *solidsection, elset=ASSEMBLY_ISAMPLE_ELSET7891, material=MAT_7891
  *solidsection, elset=ASSEMBLY_ISAMPLE_ELSET7892, material=MAT_7892
  *solidsection, elset=ASSEMBLY_ISAMPLE_ELSET7893, material=MAT_7893
  *solidsection, elset=ASSEMBLY_ISAMPLE_ELSET7894, material=MAT_7894
  *solidsection, elset=ASSEMBLY_ISAMPLE_ELSET7895, material=MAT_7895
  *solidsection, elset=ASSEMBLY_ISAMPLE_ELSET7896, material=MAT_7896
  *solidsection, elset=ASSEMBLY_ISAMPLE_ELSET7897, material=MAT_7897
  *solidsection, elset=ASSEMBLY_ISAMPLE_ELSET7898, material=MAT_7898
  *solidsection, elset=ASSEMBLY_ISAMPLE_ELSET7899, material=MAT_7899
  *solidsection, elset=ASSEMBLY_ISAMPLE_ELSET7900, material=MAT_7900
  *solidsection, elset=ASSEMBLY_ISAMPLE_ELSET7901, material=MAT_7901
  *solidsection, elset=ASSEMBLY_ISAMPLE_ELSET7902, material=MAT_7902
  *solidsection, elset=ASSEMBLY_ISAMPLE_ELSET7903, material=MAT_7903
  *solidsection, elset=ASSEMBLY_ISAMPLE_ELSET7904, material=MAT_7904
  *solidsection, elset=ASSEMBLY_ISAMPLE_ELSET7905, material=MAT_7905
  *solidsection, elset=ASSEMBLY_ISAMPLE_ELSET7906, material=MAT_7906
  *solidsection, elset=ASSEMBLY_ISAMPLE_ELSET7907, material=MAT_7907
  *solidsection, elset=ASSEMBLY_ISAMPLE_ELSET7908, material=MAT_7908
  *solidsection, elset=ASSEMBLY_ISAMPLE_ELSET7909, material=MAT_7909
  *solidsection, elset=ASSEMBLY_ISAMPLE_ELSET7910, material=MAT_7910
  *solidsection, elset=ASSEMBLY_ISAMPLE_ELSET7911, material=MAT_7911
  *solidsection, elset=ASSEMBLY_ISAMPLE_ELSET7912, material=MAT_7912
  *solidsection, elset=ASSEMBLY_ISAMPLE_ELSET7913, material=MAT_7913
  *solidsection, elset=ASSEMBLY_ISAMPLE_ELSET7914, material=MAT_7914
  *solidsection, elset=ASSEMBLY_ISAMPLE_ELSET7915, material=MAT_7915
  *solidsection, elset=ASSEMBLY_ISAMPLE_ELSET7916, material=MAT_7916
  *solidsection, elset=ASSEMBLY_ISAMPLE_ELSET7917, material=MAT_7917
  *solidsection, elset=ASSEMBLY_ISAMPLE_ELSET7918, material=MAT_7918
  *solidsection, elset=ASSEMBLY_ISAMPLE_ELSET7919, material=MAT_7919
  *solidsection, elset=ASSEMBLY_ISAMPLE_ELSET7920, material=MAT_7920
  *solidsection, elset=ASSEMBLY_ISAMPLE_ELSET7921, material=MAT_7921
  *solidsection, elset=ASSEMBLY_ISAMPLE_ELSET7922, material=MAT_7922
  *solidsection, elset=ASSEMBLY_ISAMPLE_ELSET7923, material=MAT_7923
  *solidsection, elset=ASSEMBLY_ISAMPLE_ELSET7924, material=MAT_7924
  *solidsection, elset=ASSEMBLY_ISAMPLE_ELSET7925, material=MAT_7925
  *solidsection, elset=ASSEMBLY_ISAMPLE_ELSET7926, material=MAT_7926
  *solidsection, elset=ASSEMBLY_ISAMPLE_ELSET7927, material=MAT_7927
  *solidsection, elset=ASSEMBLY_ISAMPLE_ELSET7928, material=MAT_7928
  *solidsection, elset=ASSEMBLY_ISAMPLE_ELSET7929, material=MAT_7929
  *solidsection, elset=ASSEMBLY_ISAMPLE_ELSET7930, material=MAT_7930
  *solidsection, elset=ASSEMBLY_ISAMPLE_ELSET7931, material=MAT_7931
  *solidsection, elset=ASSEMBLY_ISAMPLE_ELSET7932, material=MAT_7932
  *solidsection, elset=ASSEMBLY_ISAMPLE_ELSET7933, material=MAT_7933
  *solidsection, elset=ASSEMBLY_ISAMPLE_ELSET7934, material=MAT_7934
  *solidsection, elset=ASSEMBLY_ISAMPLE_ELSET7935, material=MAT_7935
  *solidsection, elset=ASSEMBLY_ISAMPLE_ELSET7936, material=MAT_7936
  *solidsection, elset=ASSEMBLY_ISAMPLE_ELSET7937, material=MAT_7937
  *solidsection, elset=ASSEMBLY_ISAMPLE_ELSET7938, material=MAT_7938
  *solidsection, elset=ASSEMBLY_ISAMPLE_ELSET7939, material=MAT_7939
  *solidsection, elset=ASSEMBLY_ISAMPLE_ELSET7940, material=MAT_7940
  *solidsection, elset=ASSEMBLY_ISAMPLE_ELSET7941, material=MAT_7941
  *solidsection, elset=ASSEMBLY_ISAMPLE_ELSET7942, material=MAT_7942
  *solidsection, elset=ASSEMBLY_ISAMPLE_ELSET7943, material=MAT_7943
  *solidsection, elset=ASSEMBLY_ISAMPLE_ELSET7944, material=MAT_7944
  *solidsection, elset=ASSEMBLY_ISAMPLE_ELSET7945, material=MAT_7945
  *solidsection, elset=ASSEMBLY_ISAMPLE_ELSET7946, material=MAT_7946
  *solidsection, elset=ASSEMBLY_ISAMPLE_ELSET7947, material=MAT_7947
  *solidsection, elset=ASSEMBLY_ISAMPLE_ELSET7948, material=MAT_7948
  *solidsection, elset=ASSEMBLY_ISAMPLE_ELSET7949, material=MAT_7949
  *solidsection, elset=ASSEMBLY_ISAMPLE_ELSET7950, material=MAT_7950
  *solidsection, elset=ASSEMBLY_ISAMPLE_ELSET7951, material=MAT_7951
  *solidsection, elset=ASSEMBLY_ISAMPLE_ELSET7952, material=MAT_7952
  *solidsection, elset=ASSEMBLY_ISAMPLE_ELSET7953, material=MAT_7953
  *solidsection, elset=ASSEMBLY_ISAMPLE_ELSET7954, material=MAT_7954
  *solidsection, elset=ASSEMBLY_ISAMPLE_ELSET7955, material=MAT_7955
  *solidsection, elset=ASSEMBLY_ISAMPLE_ELSET7956, material=MAT_7956
  *solidsection, elset=ASSEMBLY_ISAMPLE_ELSET7957, material=MAT_7957
  *solidsection, elset=ASSEMBLY_ISAMPLE_ELSET7958, material=MAT_7958
  *solidsection, elset=ASSEMBLY_ISAMPLE_ELSET7959, material=MAT_7959
  *solidsection, elset=ASSEMBLY_ISAMPLE_ELSET7960, material=MAT_7960
  *solidsection, elset=ASSEMBLY_ISAMPLE_ELSET7961, material=MAT_7961
  *solidsection, elset=ASSEMBLY_ISAMPLE_ELSET7962, material=MAT_7962
  *solidsection, elset=ASSEMBLY_ISAMPLE_ELSET7963, material=MAT_7963
  *solidsection, elset=ASSEMBLY_ISAMPLE_ELSET7964, material=MAT_7964
  *solidsection, elset=ASSEMBLY_ISAMPLE_ELSET7965, material=MAT_7965
  *solidsection, elset=ASSEMBLY_ISAMPLE_ELSET7966, material=MAT_7966
  *solidsection, elset=ASSEMBLY_ISAMPLE_ELSET7967, material=MAT_7967
  *solidsection, elset=ASSEMBLY_ISAMPLE_ELSET7968, material=MAT_7968
  *solidsection, elset=ASSEMBLY_ISAMPLE_ELSET7969, material=MAT_7969
  *solidsection, elset=ASSEMBLY_ISAMPLE_ELSET7970, material=MAT_7970
  *solidsection, elset=ASSEMBLY_ISAMPLE_ELSET7971, material=MAT_7971
  *solidsection, elset=ASSEMBLY_ISAMPLE_ELSET7972, material=MAT_7972
  *solidsection, elset=ASSEMBLY_ISAMPLE_ELSET7973, material=MAT_7973
  *solidsection, elset=ASSEMBLY_ISAMPLE_ELSET7974, material=MAT_7974
  *solidsection, elset=ASSEMBLY_ISAMPLE_ELSET7975, material=MAT_7975
  *solidsection, elset=ASSEMBLY_ISAMPLE_ELSET7976, material=MAT_7976
  *solidsection, elset=ASSEMBLY_ISAMPLE_ELSET7977, material=MAT_7977
  *solidsection, elset=ASSEMBLY_ISAMPLE_ELSET7978, material=MAT_7978
  *solidsection, elset=ASSEMBLY_ISAMPLE_ELSET7979, material=MAT_7979
  *solidsection, elset=ASSEMBLY_ISAMPLE_ELSET7980, material=MAT_7980
  *solidsection, elset=ASSEMBLY_ISAMPLE_ELSET7981, material=MAT_7981
  *solidsection, elset=ASSEMBLY_ISAMPLE_ELSET7982, material=MAT_7982
  *solidsection, elset=ASSEMBLY_ISAMPLE_ELSET7983, material=MAT_7983
  *solidsection, elset=ASSEMBLY_ISAMPLE_ELSET7984, material=MAT_7984
  *solidsection, elset=ASSEMBLY_ISAMPLE_ELSET7985, material=MAT_7985
  *solidsection, elset=ASSEMBLY_ISAMPLE_ELSET7986, material=MAT_7986
  *solidsection, elset=ASSEMBLY_ISAMPLE_ELSET7987, material=MAT_7987
  *solidsection, elset=ASSEMBLY_ISAMPLE_ELSET7988, material=MAT_7988
  *solidsection, elset=ASSEMBLY_ISAMPLE_ELSET7989, material=MAT_7989
  *solidsection, elset=ASSEMBLY_ISAMPLE_ELSET7990, material=MAT_7990
  *solidsection, elset=ASSEMBLY_ISAMPLE_ELSET7991, material=MAT_7991
  *solidsection, elset=ASSEMBLY_ISAMPLE_ELSET7992, material=MAT_7992
  *solidsection, elset=ASSEMBLY_ISAMPLE_ELSET7993, material=MAT_7993
  *solidsection, elset=ASSEMBLY_ISAMPLE_ELSET7994, material=MAT_7994
  *solidsection, elset=ASSEMBLY_ISAMPLE_ELSET7995, material=MAT_7995
  *solidsection, elset=ASSEMBLY_ISAMPLE_ELSET7996, material=MAT_7996
  *solidsection, elset=ASSEMBLY_ISAMPLE_ELSET7997, material=MAT_7997
  *solidsection, elset=ASSEMBLY_ISAMPLE_ELSET7998, material=MAT_7998
  *solidsection, elset=ASSEMBLY_ISAMPLE_ELSET7999, material=MAT_7999
  *solidsection, elset=ASSEMBLY_ISAMPLE_ELSET8000, material=MAT_8000
  *output, field, frequency=999999
  *output, history
  *elementoutput, directions=YES
  *elementoutput, elset=ASSEMBLY_ISAMPLE_ALLELEMENTS, directions=NO
  *output, field, frequency=999999
  *output, history
  *elementoutput, directions=YES
  *elementoutput, elset=ASSEMBLY_ISAMPLE_ALLELEMENTS, directions=NO
  *output, field, frequency=999999
  *output, history
  *elementoutput, directions=YES
  *elementoutput, elset=ASSEMBLY_ISAMPLE_ALLELEMENTS, directions=NO
  *Step, name=Loading0, nlgeom=YES, inc=1000000
  *output, field, frequency=999999
  *output, history
  *Step, name=Loading0, nlgeom=YES, inc=1000000
  *Step, name=Loading0, nlgeom=YES, inc=1000000
  *static
  *boundary
  *output, field, frequency=999999
  *nodeoutput
  *elementoutput, directions=YES
  *output, history
  *energyoutput
  *nodeoutput, nset=ASSEMBLY_ISAMPLE_TOP
  *nodeoutput, nset=ASSEMBLY_ISAMPLE_TOPLEFT
  *nodeoutput, nset=ASSEMBLY_ISAMPLE_LEFT
  *nodeoutput, nset=ASSEMBLY_ISAMPLE_RIGHT
  *elementoutput, elset=ASSEMBLY_ISAMPLE_ALLELEMENTS, directions=NO
  *endstep
  *Step, name=Loading0, nlgeom=YES, inc=1000000
  *static
  *boundary
  *endstep



                            P R O B L E M   S I Z E


          NUMBER OF ELEMENTS IS                                  8000
          NUMBER OF NODES IS                                     9261
          NUMBER OF NODES DEFINED BY THE USER                    9261
          TOTAL NUMBER OF VARIABLES IN THE MODEL                27783
          (DEGREES OF FREEDOM PLUS MAX NO. OF ANY LAGRANGE MULTIPLIER
           VARIABLES. INCLUDE *PRINT,SOLVE=YES TO GET THE ACTUAL NUMBER.)



                              END OF USER INPUT PROCESSING



     JOB TIME SUMMARY
       USER TIME (SEC)      =   19.110    
       SYSTEM TIME (SEC)    =  0.91000    
       TOTAL CPU TIME (SEC) =   20.020    
       WALLCLOCK TIME (SEC) =         20
1

   Abaqus 6.12-1                                  Date 15-mai-2015   Time 14:45:08
   For use at  under license from Dassault Systemes or its subsidiary.

                                                                                               STEP    1  INCREMENT    1
                                                                                          TIME COMPLETED IN THIS STEP   0.00    


                        S T E P       1     S T A T I C   A N A L Y S I S


                                                                                          

     AUTOMATIC TIME CONTROL WITH -
          A SUGGESTED INITIAL TIME INCREMENT OF                1.000E-02
          AND A TOTAL TIME PERIOD OF                            1.00    
          THE MINIMUM TIME INCREMENT ALLOWED IS                1.000E-08
          THE MAXIMUM TIME INCREMENT ALLOWED IS                1.000E-02

     LINEAR EQUATION SOLVER TYPE         DIRECT SPARSE

          LARGE DISPLACEMENT THEORY WILL BE USED
  
                   M E M O R Y   E S T I M A T E
  
 PROCESS      FLOATING PT       MINIMUM MEMORY        MEMORY TO
              OPERATIONS           REQUIRED          MINIMIZE I/O
             PER ITERATION         (MBYTES)           (MBYTES)
  
     1          1.34E+10               37                197
  
 NOTE:
      (1) SINCE ABAQUS DOES NOT PRE-ALLOCATE MEMORY AND ONLY ALLOCATES MEMORY AS NEEDED DURING THE ANALYSIS,
          THE MEMORY REQUIREMENT PRINTED HERE CAN ONLY BE VIEWED AS A GENERAL GUIDELINE BASED ON THE BEST
          KNOWLEDGE AVAILABLE AT THE BEGINNING OF A STEP BEFORE THE SOLUTION PROCESS HAS BEGUN.
      (2) THE ESTIMATE IS NORMALLY UPDATED AT THE BEGINNING OF EVERY STEP. IT IS THE MAXIMUM VALUE OF THE
          ESTIMATE FROM THE CURRENT STEP TO THE LAST STEP OF THE ANALYSIS, WITH UNSYMMETRIC SOLUTION TAKEN
          INTO ACCOUNT IF APPLICABLE. 
      (3) SINCE THE ESTIMATE IS BASED ON THE ACTIVE DEGREES OF FREEDOM IN THE FIRST ITERATION OF THE 
          CURRENT STEP, THE MEMORY ESTIMATE MIGHT BE SIGNIFICANTLY DIFFERENT THAN ACTUAL USAGE FOR 
          PROBLEMS WITH SUBSTANTIAL CHANGES IN ACTIVE DEGREES OF FREEDOM BETWEEN STEPS (OR EVEN WITHIN
          THE SAME STEP). EXAMPLES ARE: PROBLEMS WITH SIGNIFICANT CONTACT CHANGES, PROBLEMS WITH MODEL
          CHANGE, PROBLEMS WITH BOTH STATIC STEP AND STEADY STATE DYNAMIC PROCEDURES WHERE ACOUSTIC 
          ELEMENTS WILL ONLY BE ACTIVATED IN THE STEADY STATE DYNAMIC STEPS.
      (4) FOR MULTI-PROCESS EXECUTION, THE ESTIMATED VALUE OF FLOATING POINT OPERATIONS FOR EACH PROCESS
          IS BASED ON AN INITIAL SCHEDULING OF OPERATIONS AND MIGHT NOT REFLECT THE ACTUAL FLOATING 
          POINT OPERATIONS COMPLETED ON EACH PROCESS. OPERATIONS ARE DYNAMICALLY BALANCED DURING EXECUTION, 
          SO THE ACTUAL BALANCE OF OPERATIONS BETWEEN PROCESSES IS EXPECTED TO BE BETTER THAN THE ESTIMATE
          PRINTED HERE.
      (5) THE UPPER LIMIT OF MEMORY THAT CAN BE ALLOCATED BY ABAQUS WILL IN GENERAL DEPEND ON THE VALUE OF
          THE "MEMORY" PARAMETER AND THE AMOUNT OF PHYSICAL MEMORY AVAILABLE ON THE MACHINE. PLEASE SEE
          THE "ABAQUS ANALYSIS USER'S MANUAL" FOR MORE DETAILS. THE ACTUAL USAGE OF MEMORY AND OF DISK
          SPACE FOR SCRATCH DATA WILL DEPEND ON THIS UPPER LIMIT AS WELL AS THE MEMORY REQUIRED TO MINIMIZE
          I/O. IF THE MEMORY UPPER LIMIT IS GREATER THAN THE MEMORY REQUIRED TO MINIMIZE I/O, THEN THE ACTUAL
          MEMORY USAGE WILL BE CLOSE TO THE ESTIMATED "MEMORY TO MINIMIZE I/O" VALUE, AND THE SCRATCH DISK
          USAGE WILL BE CLOSE-TO-ZERO; OTHERWISE, THE ACTUAL MEMORY USED WILL BE CLOSE TO THE PREVIOUSLY
          MENTIONED MEMORY LIMIT, AND THE SCRATCH DISK USAGE WILL BE ROUGHLY PROPORTIONAL TO THE DIFFERENCE
          BETWEEN THE ESTIMATED "MEMORY TO MINIMIZE I/O" AND THE MEMORY UPPER LIMIT. HOWEVER ACCURATE
          ESTIMATE OF THE SCRATCH DISK SPACE IS NOT POSSIBLE.
      (6) USING "*RESTART, WRITE" CAN GENERATE A LARGE AMOUNT OF DATA WRITTEN IN THE WORK DIRECTORY.


          THE ANALYSIS HAS BEEN COMPLETED



                              ANALYSIS COMPLETE



     JOB TIME SUMMARY
       USER TIME (SEC)      =   684.61    
       SYSTEM TIME (SEC)    =   8.5100    
       TOTAL CPU TIME (SEC) =   693.12    
       WALLCLOCK TIME (SEC) =        693
