**----------------------------------
**DISTRIBUTED MECHANICAL PROPERTIES
**----------------------------------
**HEADER
*Preprint, echo=NO, model=NO, history=NO, contact=NO
**----------------------------------
** PART "pSAMPLE" DEFINITION
*Part, name = pSample
**----------------------------------
** NODES
**----------------------------------
*NODE, NSET=ALLNODES
  1, 0.0, 0.0, 0.0
  2, 1.66666662693, 0.0, 0.0
  3, 3.33333325386, 0.0, 0.0
  4, 5.0, 0.0, 0.0
  5, 0.0, 1.66666662693, 0.0
  6, 1.66666662693, 1.66666662693, 0.0
  7, 3.33333325386, 1.66666662693, 0.0
  8, 5.0, 1.66666662693, 0.0
  9, 0.0, 3.33333325386, 0.0
  10, 1.66666662693, 3.33333325386, 0.0
  11, 3.33333325386, 3.33333325386, 0.0
  12, 5.0, 3.33333325386, 0.0
  13, 0.0, 5.0, 0.0
  14, 1.66666662693, 5.0, 0.0
  15, 3.33333325386, 5.0, 0.0
  16, 5.0, 5.0, 0.0
  17, 0.0, 0.0, 1.66666662693
  18, 1.66666662693, 0.0, 1.66666662693
  19, 3.33333325386, 0.0, 1.66666662693
  20, 5.0, 0.0, 1.66666662693
** ... 44 like lines cut
**----------------------------------
** NODE SETS
**----------------------------------
*NSET, NSET=TOPLEFT
13,29,45,61,
*NSET, NSET=RIGHT
4,8,12,16,20,24,28,32,36,
40,44,48,52,56,60,64,
*NSET, NSET=BOTTOMLEFT
1,
*NSET, NSET=BOTTOMRIGHT
4,
*NSET, NSET=BOTTOM
1,2,3,4,17,18,19,20,33,
34,35,36,49,50,51,52,
*NSET, NSET=TOP
13,14,15,16,29,30,31,32,45,
46,47,48,61,62,63,64,
*NSET, NSET=TOPRIGHT
16,32,48,64,
*NSET, NSET=LEFT
1,5,9,13,17,21,25,29,33,
37,41,45,49,53,57,61,
**----------------------------------
** ELEMENTS
**----------------------------------
*ELEMENT, TYPE=C3D8, ELSET=C3D8_ELEMENTS
  1, 1, 2, 6, 5, 17, 18, 22, 21, 
  2, 2, 3, 7, 6, 18, 19, 23, 22, 
  3, 3, 4, 8, 7, 19, 20, 24, 23, 
  4, 5, 6, 10, 9, 21, 22, 26, 25, 
  5, 6, 7, 11, 10, 22, 23, 27, 26, 
  6, 7, 8, 12, 11, 23, 24, 28, 27, 
  7, 9, 10, 14, 13, 25, 26, 30, 29, 
  8, 10, 11, 15, 14, 26, 27, 31, 30, 
  9, 11, 12, 16, 15, 27, 28, 32, 31, 
  10, 17, 18, 22, 21, 33, 34, 38, 37, 
  11, 18, 19, 23, 22, 34, 35, 39, 38, 
  12, 19, 20, 24, 23, 35, 36, 40, 39, 
  13, 21, 22, 26, 25, 37, 38, 42, 41, 
  14, 22, 23, 27, 26, 38, 39, 43, 42, 
  15, 23, 24, 28, 27, 39, 40, 44, 43, 
  16, 25, 26, 30, 29, 41, 42, 46, 45, 
  17, 26, 27, 31, 30, 42, 43, 47, 46, 
  18, 27, 28, 32, 31, 43, 44, 48, 47, 
  19, 33, 34, 38, 37, 49, 50, 54, 53, 
  20, 34, 35, 39, 38, 50, 51, 55, 54, 
** ... 7 like lines cut
**----------------------------------
** ELEMENT SETS
**----------------------------------
*ELSET, ELSET=ALLELEMENTS
  1, 2, 3, 4, 5, 6, 7, 8, 9,
 10, 11, 12, 13, 14, 15, 16, 17, 18,
 19, 20, 21, 22, 23, 24, 25, 26, 27,

**----------------------------------
** ELEMENT SURFACES
**----------------------------------
*Solid Section, elset=Elset1, material=mat_1
*Elset, Elset=Elset1
1,
*Solid Section, elset=Elset2, material=mat_2
*Elset, Elset=Elset2
2,
*Solid Section, elset=Elset3, material=mat_3
*Elset, Elset=Elset3
3,
*Solid Section, elset=Elset4, material=mat_4
*Elset, Elset=Elset4
4,
*Solid Section, elset=Elset5, material=mat_5
*Elset, Elset=Elset5
5,
*Solid Section, elset=Elset6, material=mat_6
*Elset, Elset=Elset6
6,
*Solid Section, elset=Elset7, material=mat_7
*Elset, Elset=Elset7
7,
*Solid Section, elset=Elset8, material=mat_8
*Elset, Elset=Elset8
8,
*Solid Section, elset=Elset9, material=mat_9
*Elset, Elset=Elset9
9,
*Solid Section, elset=Elset10, material=mat_10
*Elset, Elset=Elset10
10,
*Solid Section, elset=Elset11, material=mat_11
*Elset, Elset=Elset11
11,
*Solid Section, elset=Elset12, material=mat_12
*Elset, Elset=Elset12
12,
*Solid Section, elset=Elset13, material=mat_13
*Elset, Elset=Elset13
13,
*Solid Section, elset=Elset14, material=mat_14
*Elset, Elset=Elset14
14,
*Solid Section, elset=Elset15, material=mat_15
*Elset, Elset=Elset15
15,
*Solid Section, elset=Elset16, material=mat_16
*Elset, Elset=Elset16
16,
*Solid Section, elset=Elset17, material=mat_17
*Elset, Elset=Elset17
17,
*Solid Section, elset=Elset18, material=mat_18
*Elset, Elset=Elset18
18,
*Solid Section, elset=Elset19, material=mat_19
*Elset, Elset=Elset19
19,
*Solid Section, elset=Elset20, material=mat_20
*Elset, Elset=Elset20
20,
** ... 21 like lines cut

*End part
**----------------------------------
** ASSEMBLY
*Assembly, name = Assembly
*Instance, name=iSample, part=pSample
*End Instance
*End Assembly
**----------------------------------
** MATERIALS
** <Bilinear instance: 1 samples>
*MATERIAL, NAME=mat_1
*ELASTIC
  1.0, 0.3
*PLASTIC
  0.00177140807963, 0.
 0.005, 0.0645718384074 
** <Bilinear instance: 1 samples>
*MATERIAL, NAME=mat_2
*ELASTIC
  1.0, 0.3
*PLASTIC
  0.000859780805403, 0.
 0.005, 0.0828043838919 
** <Bilinear instance: 1 samples>
*MATERIAL, NAME=mat_3
*ELASTIC
  1.0, 0.3
*PLASTIC
  0.00102976066029, 0.
 0.005, 0.0794047867942 
** <Bilinear instance: 1 samples>
*MATERIAL, NAME=mat_4
*ELASTIC
  1.0, 0.3
*PLASTIC
  0.000331768723431, 0.
 0.005, 0.0933646255314 
** <Bilinear instance: 1 samples>
*MATERIAL, NAME=mat_5
*ELASTIC
  1.0, 0.3
*PLASTIC
  0.00129562453125, 0.
 0.005, 0.074087509375 
** <Bilinear instance: 1 samples>
*MATERIAL, NAME=mat_6
*ELASTIC
  1.0, 0.3
*PLASTIC
  0.000989200418839, 0.
 0.005, 0.0802159916232 
** <Bilinear instance: 1 samples>
*MATERIAL, NAME=mat_7
*ELASTIC
  1.0, 0.3
*PLASTIC
  0.00112827689884, 0.
 0.005, 0.0774344620233 
** <Bilinear instance: 1 samples>
*MATERIAL, NAME=mat_8
*ELASTIC
  1.0, 0.3
*PLASTIC
  0.000527290474799, 0.
 0.005, 0.089454190504 
** <Bilinear instance: 1 samples>
*MATERIAL, NAME=mat_9
*ELASTIC
  1.0, 0.3
*PLASTIC
  0.00168717473908, 0.
 0.005, 0.0662565052185 
** <Bilinear instance: 1 samples>
*MATERIAL, NAME=mat_10
*ELASTIC
  1.0, 0.3
*PLASTIC
  0.000794715215323, 0.
 0.005, 0.0841056956935 
** <Bilinear instance: 1 samples>
*MATERIAL, NAME=mat_11
*ELASTIC
  1.0, 0.3
*PLASTIC
  0.000866649875798, 0.
 0.005, 0.082667002484 
** <Bilinear instance: 1 samples>
*MATERIAL, NAME=mat_12
*ELASTIC
  1.0, 0.3
*PLASTIC
  0.00137668132434, 0.
 0.005, 0.0724663735131 
** <Bilinear instance: 1 samples>
*MATERIAL, NAME=mat_13
*ELASTIC
  1.0, 0.3
*PLASTIC
  0.000661817653356, 0.
 0.005, 0.0867636469329 
** <Bilinear instance: 1 samples>
*MATERIAL, NAME=mat_14
*ELASTIC
  1.0, 0.3
*PLASTIC
  0.000173808866892, 0.
 0.005, 0.0965238226622 
** <Bilinear instance: 1 samples>
*MATERIAL, NAME=mat_15
*ELASTIC
  1.0, 0.3
*PLASTIC
  0.00110628893603, 0.
 0.005, 0.0778742212794 
** <Bilinear instance: 1 samples>
*MATERIAL, NAME=mat_16
*ELASTIC
  1.0, 0.3
*PLASTIC
  0.00124495266213, 0.
 0.005, 0.0751009467573 
** <Bilinear instance: 1 samples>
*MATERIAL, NAME=mat_17
*ELASTIC
  1.0, 0.3
*PLASTIC
  0.00094658949303, 0.
 0.005, 0.0810682101394 
** <Bilinear instance: 1 samples>
*MATERIAL, NAME=mat_18
*ELASTIC
  1.0, 0.3
*PLASTIC
  0.00135077845747, 0.
 0.005, 0.0729844308505 
** <Bilinear instance: 1 samples>
*MATERIAL, NAME=mat_19
*ELASTIC
  1.0, 0.3
*PLASTIC
  0.000487214819255, 0.
 0.005, 0.0902557036149 
** <Bilinear instance: 1 samples>
*MATERIAL, NAME=mat_20
*ELASTIC
  1.0, 0.3
*PLASTIC
  0.00103953665181, 0.
 0.005, 0.0792092669638 
** <Bilinear instance: 1 samples>
*MATERIAL, NAME=mat_21
*ELASTIC
  1.0, 0.3
*PLASTIC
  0.000576764627586, 0.
 0.005, 0.0884647074483 
** <Bilinear instance: 1 samples>
*MATERIAL, NAME=mat_22
*ELASTIC
  1.0, 0.3
*PLASTIC
  0.00111558435865, 0.
 0.005, 0.0776883128269 
** <Bilinear instance: 1 samples>
*MATERIAL, NAME=mat_23
*ELASTIC
  1.0, 0.3
*PLASTIC
  0.00107467362485, 0.
 0.005, 0.078506527503 
** <Bilinear instance: 1 samples>
*MATERIAL, NAME=mat_24
*ELASTIC
  1.0, 0.3
*PLASTIC
  0.000789163984379, 0.
 0.005, 0.0842167203124 
** <Bilinear instance: 1 samples>
*MATERIAL, NAME=mat_25
*ELASTIC
  1.0, 0.3
*PLASTIC
  0.000718386516637, 0.
 0.005, 0.0856322696673 
** <Bilinear instance: 1 samples>
*MATERIAL, NAME=mat_26
*ELASTIC
  1.0, 0.3
*PLASTIC
  0.00273181843563, 0.
 0.005, 0.0453636312874 
** <Bilinear instance: 1 samples>
*MATERIAL, NAME=mat_27
*ELASTIC
  1.0, 0.3
*PLASTIC
  0.000225999201382, 0.
 0.005, 0.0954800159724 
**----------------------------------
** STEPS
*Step, Name=Loading0, Nlgeom=YES, Inc=1000000
*Static
0.02, 1, 1e-08, 0.02
** BOUNDARY CONDITIONS
*Boundary
iSample.Bottom, 2, 2
iSample.BottomLeft, 1, 1
iSample.BottomLeft, 3, 3
iSample.BottomRight, 3, 3
iSample.Top,    2, 2, 1.2
** RESTART OPTIONS 
*Restart, write, frequency=0
** FIELD OUTPUTS
*Output, field, frequency=999999
*Node Output
U
*Element Output, directions=YES
E, PE, EE, PEEQ, S
** HYSTORY OUTPUTS
*Output, history
*Energy Output
ALLPD, ALLSE, ALLWK
*Node Output, nset=iSample.Top
RF2
*Node Output, nset=iSample.TopLeft
U2
*Node Output, nset=iSample.Left
COOR1
*Node Output, nset=iSample.Right
COOR1
*Element Output, elset=iSample.allElements, directions=NO
EVOL
*End Step
  