**----------------------------------
**DISTRIBUTED MECHANICAL PROPERTIES
**----------------------------------
**HEADER
*Preprint, echo=NO, model=NO, history=NO, contact=NO
**----------------------------------
** PART "pSAMPLE" DEFINITION
*Part, name = pSample
**----------------------------------
** NODES
**----------------------------------
*NODE, NSET=ALLNODES
  1, 0.0, 0.0, 0.0
  2, 0.20000000298, 0.0, 0.0
  3, 0.40000000596, 0.0, 0.0
  4, 0.600000023842, 0.0, 0.0
  5, 0.800000011921, 0.0, 0.0
  6, 1.0, 0.0, 0.0
  7, 0.0, 0.20000000298, 0.0
  8, 0.20000000298, 0.20000000298, 0.0
  9, 0.40000000596, 0.20000000298, 0.0
  10, 0.600000023842, 0.20000000298, 0.0
  11, 0.800000011921, 0.20000000298, 0.0
  12, 1.0, 0.20000000298, 0.0
  13, 0.0, 0.40000000596, 0.0
  14, 0.20000000298, 0.40000000596, 0.0
  15, 0.40000000596, 0.40000000596, 0.0
  16, 0.600000023842, 0.40000000596, 0.0
  17, 0.800000011921, 0.40000000596, 0.0
  18, 1.0, 0.40000000596, 0.0
  19, 0.0, 0.600000023842, 0.0
  20, 0.20000000298, 0.600000023842, 0.0
** ... 196 like lines cut
**----------------------------------
** NODE SETS
**----------------------------------
*NSET, NSET=REFY
186,
*NSET, NSET=REFX
36,
*NSET, NSET=RIGHT
48,54,60,66,84,90,96,102,120,
126,132,138,156,162,168,174,
*NSET, NSET=BOTTOMRIGHT
42,78,114,150,
*NSET, NSET=BOTTOMFRONTLEFT
181,
*NSET, NSET=TOPRIGHT
72,108,144,180,
*NSET, NSET=BOTTOMREAR
2,3,4,5,
*NSET, NSET=REFZ
211,
*NSET, NSET=FRONTRIGHT
192,198,204,210,
*NSET, NSET=BOTTOM
38,39,40,41,74,75,76,77,110,
111,112,113,146,147,148,149,
*NSET, NSET=TOP
68,69,70,71,104,105,106,107,140,
141,142,143,176,177,178,179,72,108,
144,180,67,103,139,175,32,33,34,
35,212,213,214,215,36,31,211,
*NSET, NSET=TOPREARLEFT
31,
*NSET, NSET=BOTTOMLEFT
37,73,109,145,
*NSET, NSET=ORIGIN
1,
*NSET, NSET=BOTTOMFRONT
182,183,184,185,
*NSET, NSET=REARRIGHT
12,18,24,30,
*NSET, NSET=FRONT
188,189,190,191,194,195,196,197,200,
201,202,203,206,207,208,209,
*NSET, NSET=REAR
8,9,10,11,14,15,16,17,20,
21,22,23,26,27,28,29,
*NSET, NSET=PILOT
216,
*NSET, NSET=TOPLEFT
67,103,139,175,
*NSET, NSET=TOPREAR
32,33,34,35,
*NSET, NSET=BOTTOMREARRIGHT
6,
*NSET, NSET=REARLEFT
7,13,19,25,
*NSET, NSET=FRONTLEFT
187,193,199,205,
*NSET, NSET=TOPFRONT
212,213,214,215,
*NSET, NSET=LEFT
43,49,55,61,79,85,91,97,115,
121,127,133,151,157,163,169,
**----------------------------------
** ELEMENTS
**----------------------------------
*ELEMENT, TYPE=C3D8, ELSET=C3D8_ELEMENTS
  1, 1, 2, 8, 7, 37, 38, 44, 43, 
  2, 2, 3, 9, 8, 38, 39, 45, 44, 
  3, 3, 4, 10, 9, 39, 40, 46, 45, 
  4, 4, 5, 11, 10, 40, 41, 47, 46, 
  5, 5, 6, 12, 11, 41, 42, 48, 47, 
  6, 7, 8, 14, 13, 43, 44, 50, 49, 
  7, 8, 9, 15, 14, 44, 45, 51, 50, 
  8, 9, 10, 16, 15, 45, 46, 52, 51, 
  9, 10, 11, 17, 16, 46, 47, 53, 52, 
  10, 11, 12, 18, 17, 47, 48, 54, 53, 
  11, 13, 14, 20, 19, 49, 50, 56, 55, 
  12, 14, 15, 21, 20, 50, 51, 57, 56, 
  13, 15, 16, 22, 21, 51, 52, 58, 57, 
  14, 16, 17, 23, 22, 52, 53, 59, 58, 
  15, 17, 18, 24, 23, 53, 54, 60, 59, 
  16, 19, 20, 26, 25, 55, 56, 62, 61, 
  17, 20, 21, 27, 26, 56, 57, 63, 62, 
  18, 21, 22, 28, 27, 57, 58, 64, 63, 
  19, 22, 23, 29, 28, 58, 59, 65, 64, 
  20, 23, 24, 30, 29, 59, 60, 66, 65, 
** ... 105 like lines cut
**----------------------------------
** ELEMENT SETS
**----------------------------------
*ELSET, ELSET=KIKINOU6
  105, 109, 110, 114, 115, 84, 85, 90,
*ELSET, ELSET=KIKINOU7
  66, 67, 36, 37, 41, 42, 46, 87, 92,
 61, 62,
*ELSET, ELSET=KIKINOU4
  12, 13, 7,
*ELSET, ELSET=KIKINOU5
  96, 97, 71, 116, 117, 121, 122, 91,
*ELSET, ELSET=KIKINOU2
  65, 34, 35, 39, 10, 14, 59, 60, 30,

*ELSET, ELSET=KIKINOU3
  38, 43, 44, 49, 18, 19, 23, 24,
*ELSET, ELSET=KIKINOU0
  64, 68, 69, 88, 89, 58, 93, 63,
*ELSET, ELSET=KIKINOU1
  104, 103, 79,
*ELSET, ELSET=ALLELEMENTS
  1, 2, 3, 4, 5, 6, 7, 8, 9,
 10, 11, 12, 13, 14, 15, 16, 17, 18,
 19, 20, 21, 22, 23, 24, 25, 26, 27,
 28, 29, 30, 31, 32, 33, 34, 35, 36,
 37, 38, 39, 40, 41, 42, 43, 44, 45,
 46, 47, 48, 49, 50, 51, 52, 53, 54,
 55, 56, 57, 58, 59, 60, 61, 62, 63,
 64, 65, 66, 67, 68, 69, 70, 71, 72,
 73, 74, 75, 76, 77, 78, 79, 80, 81,
 82, 83, 84, 85, 86, 87, 88, 89, 90,
 91, 92, 93, 94, 95, 96, 97, 98, 99,
 100, 101, 102, 103, 104, 105, 106, 107, 108,
 109, 110, 111, 112, 113, 114, 115, 116, 117,
 118, 119, 120, 121, 122, 123, 124, 125,
*ELSET, ELSET=KIKINOU8
  106, 76, 111, 81, 86, 56,
*ELSET, ELSET=KIKINOU9
  32, 2, 6,
*ELSET, ELSET=KIKINOU14
  101, 102,
*ELSET, ELSET=KIKINOU15
  16, 17, 11, 21,
*ELSET, ELSET=KIKINOU16
  107, 108, 77, 78, 112, 113, 82, 83, 52,
 53, 57,
*ELSET, ELSET=KIKINOU17
  100, 70, 75, 50, 120, 125, 94, 95,
*ELSET, ELSET=KIKINOU10
  33, 3, 4, 5, 8, 9, 28, 29,
*ELSET, ELSET=KIKINOU11
  40, 25, 20, 45, 15,
*ELSET, ELSET=KIKINOU12
  1, 26, 27, 51, 31,
*ELSET, ELSET=KIKINOU13
  80, 54, 55,
*ELSET, ELSET=KIKINOU18
  48, 72, 73, 22, 47,
*ELSET, ELSET=KIKINOU19
  98, 99, 74, 118, 119, 123, 124,
**----------------------------------
** ELEMENT SURFACES
**----------------------------------
*Solid Section, elset=Elset1, material=mat_1
*Elset, Elset=Elset1
1,
*Solid Section, elset=Elset2, material=mat_2
*Elset, Elset=Elset2
2,
*Solid Section, elset=Elset3, material=mat_3
*Elset, Elset=Elset3
3,
*Solid Section, elset=Elset4, material=mat_4
*Elset, Elset=Elset4
4,
*Solid Section, elset=Elset5, material=mat_5
*Elset, Elset=Elset5
5,
*Solid Section, elset=Elset6, material=mat_6
*Elset, Elset=Elset6
6,
*Solid Section, elset=Elset7, material=mat_7
*Elset, Elset=Elset7
7,
*Solid Section, elset=Elset8, material=mat_8
*Elset, Elset=Elset8
8,
*Solid Section, elset=Elset9, material=mat_9
*Elset, Elset=Elset9
9,
*Solid Section, elset=Elset10, material=mat_10
*Elset, Elset=Elset10
10,
*Solid Section, elset=Elset11, material=mat_11
*Elset, Elset=Elset11
11,
*Solid Section, elset=Elset12, material=mat_12
*Elset, Elset=Elset12
12,
*Solid Section, elset=Elset13, material=mat_13
*Elset, Elset=Elset13
13,
*Solid Section, elset=Elset14, material=mat_14
*Elset, Elset=Elset14
14,
*Solid Section, elset=Elset15, material=mat_15
*Elset, Elset=Elset15
15,
*Solid Section, elset=Elset16, material=mat_16
*Elset, Elset=Elset16
16,
*Solid Section, elset=Elset17, material=mat_17
*Elset, Elset=Elset17
17,
*Solid Section, elset=Elset18, material=mat_18
*Elset, Elset=Elset18
18,
*Solid Section, elset=Elset19, material=mat_19
*Elset, Elset=Elset19
19,
*Solid Section, elset=Elset20, material=mat_20
*Elset, Elset=Elset20
20,
** ... 315 like lines cut
*EQUATION
2
68, 2, 1.0,216, 2, -1.0
2
69, 2, 1.0,216, 2, -1.0
2
70, 2, 1.0,216, 2, -1.0
2
71, 2, 1.0,216, 2, -1.0
2
104, 2, 1.0,216, 2, -1.0
2
105, 2, 1.0,216, 2, -1.0
2
106, 2, 1.0,216, 2, -1.0
2
107, 2, 1.0,216, 2, -1.0
2
140, 2, 1.0,216, 2, -1.0
2
141, 2, 1.0,216, 2, -1.0
** ... 50 like lines cut
*End part
**----------------------------------
** ASSEMBLY
*Assembly, name = Assembly
*Instance, name=iSample, part=pSample
*End Instance
*End Assembly
**----------------------------------
** MATERIALS
** <Bilinear instance: 1 samples>
*MATERIAL, NAME=mat_1
*ELASTIC
  64000.0, 0.3
*PLASTIC
  177.044758355, 0.
 1000.0, 1.597971343 
** <Bilinear instance: 1 samples>
*MATERIAL, NAME=mat_2
*ELASTIC
  64000.0, 0.3
*PLASTIC
  120.208624715, 0.
 1000.0, 1.70833276754 
** <Bilinear instance: 1 samples>
*MATERIAL, NAME=mat_3
*ELASTIC
  64000.0, 0.3
*PLASTIC
  139.386855333, 0.
 1000.0, 1.67109348479 
** <Bilinear instance: 1 samples>
*MATERIAL, NAME=mat_4
*ELASTIC
  64000.0, 0.3
*PLASTIC
  58.344465581, 0.
 1000.0, 1.82845734839 
** <Bilinear instance: 1 samples>
*MATERIAL, NAME=mat_5
*ELASTIC
  64000.0, 0.3
*PLASTIC
  89.2625940169, 0.
 1000.0, 1.76842214754 
** <Bilinear instance: 1 samples>
*MATERIAL, NAME=mat_6
*ELASTIC
  64000.0, 0.3
*PLASTIC
  303.286285097, 0.
 1000.0, 1.35284216486 
** <Bilinear instance: 1 samples>
*MATERIAL, NAME=mat_7
*ELASTIC
  64000.0, 0.3
*PLASTIC
  240.411848069, 0.
 1000.0, 1.47492845035 
** <Bilinear instance: 1 samples>
*MATERIAL, NAME=mat_8
*ELASTIC
  64000.0, 0.3
*PLASTIC
  174.383803467, 0.
 1000.0, 1.6031382457 
** <Bilinear instance: 1 samples>
*MATERIAL, NAME=mat_9
*ELASTIC
  64000.0, 0.3
*PLASTIC
  132.895202076, 0.
 1000.0, 1.68369863675 
** <Bilinear instance: 1 samples>
*MATERIAL, NAME=mat_10
*ELASTIC
  64000.0, 0.3
*PLASTIC
  76.8294618907, 0.
 1000.0, 1.79256415167 
** <Bilinear instance: 1 samples>
*MATERIAL, NAME=mat_11
*ELASTIC
  64000.0, 0.3
*PLASTIC
  294.939408296, 0.
 1000.0, 1.36904969263 
** <Bilinear instance: 1 samples>
*MATERIAL, NAME=mat_12
*ELASTIC
  64000.0, 0.3
*PLASTIC
  300.018619931, 0.
 1000.0, 1.35918714577 
** <Bilinear instance: 1 samples>
*MATERIAL, NAME=mat_13
*ELASTIC
  64000.0, 0.3
*PLASTIC
  104.537035232, 0.
 1000.0, 1.73876303838 
** <Bilinear instance: 1 samples>
*MATERIAL, NAME=mat_14
*ELASTIC
  64000.0, 0.3
*PLASTIC
  318.882657267, 0.
 1000.0, 1.32255794706 
** <Bilinear instance: 1 samples>
*MATERIAL, NAME=mat_15
*ELASTIC
  64000.0, 0.3
*PLASTIC
  258.028566789, 0.
 1000.0, 1.44072122954 
** <Bilinear instance: 1 samples>
*MATERIAL, NAME=mat_16
*ELASTIC
  64000.0, 0.3
*PLASTIC
  80.0689898628, 0.
 1000.0, 1.78627380609 
** <Bilinear instance: 1 samples>
*MATERIAL, NAME=mat_17
*ELASTIC
  64000.0, 0.3
*PLASTIC
  66.3836125619, 0.
 1000.0, 1.81284735425 
** <Bilinear instance: 1 samples>
*MATERIAL, NAME=mat_18
*ELASTIC
  64000.0, 0.3
*PLASTIC
  157.973765102, 0.
 1000.0, 1.63500239786 
** <Bilinear instance: 1 samples>
*MATERIAL, NAME=mat_19
*ELASTIC
  64000.0, 0.3
*PLASTIC
  43.2122921147, 0.
 1000.0, 1.85784020949 
** <Bilinear instance: 1 samples>
*MATERIAL, NAME=mat_20
*ELASTIC
  64000.0, 0.3
*PLASTIC
  77.681717994, 0.
 1000.0, 1.79090928545 
** <Bilinear instance: 1 samples>
*MATERIAL, NAME=mat_21
*ELASTIC
  64000.0, 0.3
*PLASTIC
  238.199085911, 0.
 1000.0, 1.4792250759 
** <Bilinear instance: 1 samples>
*MATERIAL, NAME=mat_22
*ELASTIC
  64000.0, 0.3
*PLASTIC
  176.466016643, 0.
 1000.0, 1.59909511331 
** <Bilinear instance: 1 samples>
*MATERIAL, NAME=mat_23
*ELASTIC
  64000.0, 0.3
*PLASTIC
  113.663736631, 0.
 1000.0, 1.72104128809 
** <Bilinear instance: 1 samples>
*MATERIAL, NAME=mat_24
*ELASTIC
  64000.0, 0.3
*PLASTIC
  274.371989185, 0.
 1000.0, 1.40898642877 
** <Bilinear instance: 1 samples>
*MATERIAL, NAME=mat_25
*ELASTIC
  64000.0, 0.3
*PLASTIC
  181.243661238, 0.
 1000.0, 1.58981813352 
** <Bilinear instance: 1 samples>
*MATERIAL, NAME=mat_26
*ELASTIC
  64000.0, 0.3
*PLASTIC
  53.0452132823, 0.
 1000.0, 1.83874715868 
** <Bilinear instance: 1 samples>
*MATERIAL, NAME=mat_27
*ELASTIC
  64000.0, 0.3
*PLASTIC
  173.738549856, 0.
 1000.0, 1.60439116533 
** <Bilinear instance: 1 samples>
*MATERIAL, NAME=mat_28
*ELASTIC
  64000.0, 0.3
*PLASTIC
  88.6522765694, 0.
 1000.0, 1.76960722996 
** <Bilinear instance: 1 samples>
*MATERIAL, NAME=mat_29
*ELASTIC
  64000.0, 0.3
*PLASTIC
  201.937556037, 0.
 1000.0, 1.54963581352 
** <Bilinear instance: 1 samples>
*MATERIAL, NAME=mat_30
*ELASTIC
  64000.0, 0.3
*PLASTIC
  216.255888478, 0.
 1000.0, 1.52183322626 
** <Bilinear instance: 1 samples>
*MATERIAL, NAME=mat_31
*ELASTIC
  64000.0, 0.3
*PLASTIC
  269.476781254, 0.
 1000.0, 1.41849168689 
** <Bilinear instance: 1 samples>
*MATERIAL, NAME=mat_32
*ELASTIC
  64000.0, 0.3
*PLASTIC
  188.280940379, 0.
 1000.0, 1.57615351383 
** <Bilinear instance: 1 samples>
*MATERIAL, NAME=mat_33
*ELASTIC
  64000.0, 0.3
*PLASTIC
  94.7324264504, 0.
 1000.0, 1.75780111369 
** <Bilinear instance: 1 samples>
*MATERIAL, NAME=mat_34
*ELASTIC
  64000.0, 0.3
*PLASTIC
  161.83050392, 0.
 1000.0, 1.62751358462 
** <Bilinear instance: 1 samples>
*MATERIAL, NAME=mat_35
*ELASTIC
  64000.0, 0.3
*PLASTIC
  225.516021918, 0.
 1000.0, 1.50385238462 
** <Bilinear instance: 1 samples>
*MATERIAL, NAME=mat_36
*ELASTIC
  64000.0, 0.3
*PLASTIC
  333.471251953, 0.
 1000.0, 1.29423057873 
** <Bilinear instance: 1 samples>
*MATERIAL, NAME=mat_37
*ELASTIC
  64000.0, 0.3
*PLASTIC
  115.65613398, 0.
 1000.0, 1.71717255538 
** <Bilinear instance: 1 samples>
*MATERIAL, NAME=mat_38
*ELASTIC
  64000.0, 0.3
*PLASTIC
  49.9566715973, 0.
 1000.0, 1.844744327 
** <Bilinear instance: 1 samples>
*MATERIAL, NAME=mat_39
*ELASTIC
  64000.0, 0.3
*PLASTIC
  170.31368543, 0.
 1000.0, 1.61104138751 
** <Bilinear instance: 1 samples>
*MATERIAL, NAME=mat_40
*ELASTIC
  64000.0, 0.3
*PLASTIC
  278.241900235, 0.
 1000.0, 1.40147203838 
** <Bilinear instance: 1 samples>
*MATERIAL, NAME=mat_41
*ELASTIC
  64000.0, 0.3
*PLASTIC
  38.2739290673, 0.
 1000.0, 1.86742926395 
** <Bilinear instance: 1 samples>
*MATERIAL, NAME=mat_42
*ELASTIC
  64000.0, 0.3
*PLASTIC
  210.889465879, 0.
 1000.0, 1.53225346431 
** <Bilinear instance: 1 samples>
*MATERIAL, NAME=mat_43
*ELASTIC
  64000.0, 0.3
*PLASTIC
  172.074257225, 0.
 1000.0, 1.6076228015 
** <Bilinear instance: 1 samples>
*MATERIAL, NAME=mat_44
*ELASTIC
  64000.0, 0.3
*PLASTIC
  171.613361987, 0.
 1000.0, 1.60851774371 
** <Bilinear instance: 1 samples>
*MATERIAL, NAME=mat_45
*ELASTIC
  64000.0, 0.3
*PLASTIC
  87.5269268149, 0.
 1000.0, 1.77179237512 
** <Bilinear instance: 1 samples>
*MATERIAL, NAME=mat_46
*ELASTIC
  64000.0, 0.3
*PLASTIC
  70.9525182595, 0.
 1000.0, 1.8039756927 
** <Bilinear instance: 1 samples>
*MATERIAL, NAME=mat_47
*ELASTIC
  64000.0, 0.3
*PLASTIC
  175.687413801, 0.
 1000.0, 1.60060696349 
** <Bilinear instance: 1 samples>
*MATERIAL, NAME=mat_48
*ELASTIC
  64000.0, 0.3
*PLASTIC
  337.065275608, 0.
 1000.0, 1.28725189202 
** <Bilinear instance: 1 samples>
*MATERIAL, NAME=mat_49
*ELASTIC
  64000.0, 0.3
*PLASTIC
  145.42014136, 0.
 1000.0, 1.65937836629 
** <Bilinear instance: 1 samples>
*MATERIAL, NAME=mat_50
*ELASTIC
  64000.0, 0.3
*PLASTIC
  368.639007838, 0.
 1000.0, 1.2259436741 
** <Bilinear instance: 1 samples>
*MATERIAL, NAME=mat_51
*ELASTIC
  64000.0, 0.3
*PLASTIC
  175.555512459, 0.
 1000.0, 1.6008630826 
** <Bilinear instance: 1 samples>
*MATERIAL, NAME=mat_52
*ELASTIC
  64000.0, 0.3
*PLASTIC
  113.380534692, 0.
 1000.0, 1.72159119477 
** <Bilinear instance: 1 samples>
*MATERIAL, NAME=mat_53
*ELASTIC
  64000.0, 0.3
*PLASTIC
  81.4688490693, 0.
 1000.0, 1.78355563288 
** <Bilinear instance: 1 samples>
*MATERIAL, NAME=mat_54
*ELASTIC
  64000.0, 0.3
*PLASTIC
  227.147614425, 0.
 1000.0, 1.50068424384 
** <Bilinear instance: 1 samples>
*MATERIAL, NAME=mat_55
*ELASTIC
  64000.0, 0.3
*PLASTIC
  31.2944806529, 0.
 1000.0, 1.88098159097 
** <Bilinear instance: 1 samples>
*MATERIAL, NAME=mat_56
*ELASTIC
  64000.0, 0.3
*PLASTIC
  91.5110979175, 0.
 1000.0, 1.76405612055 
** <Bilinear instance: 1 samples>
*MATERIAL, NAME=mat_57
*ELASTIC
  64000.0, 0.3
*PLASTIC
  221.378705657, 0.
 1000.0, 1.51188600843 
** <Bilinear instance: 1 samples>
*MATERIAL, NAME=mat_58
*ELASTIC
  64000.0, 0.3
*PLASTIC
  86.4348643635, 0.
 1000.0, 1.77391288473 
** <Bilinear instance: 1 samples>
*MATERIAL, NAME=mat_59
*ELASTIC
  64000.0, 0.3
*PLASTIC
  94.3957788232, 0.
 1000.0, 1.7584547984 
** <Bilinear instance: 1 samples>
*MATERIAL, NAME=mat_60
*ELASTIC
  64000.0, 0.3
*PLASTIC
  88.6392110889, 0.
 1000.0, 1.76963259983 
** <Bilinear instance: 1 samples>
*MATERIAL, NAME=mat_61
*ELASTIC
  64000.0, 0.3
*PLASTIC
  119.773976182, 0.
 1000.0, 1.70917674528 
** <Bilinear instance: 1 samples>
*MATERIAL, NAME=mat_62
*ELASTIC
  64000.0, 0.3
*PLASTIC
  75.7788734838, 0.
 1000.0, 1.79460412916 
** <Bilinear instance: 1 samples>
*MATERIAL, NAME=mat_63
*ELASTIC
  64000.0, 0.3
*PLASTIC
  244.849421964, 0.
 1000.0, 1.46631180201 
** <Bilinear instance: 1 samples>
*MATERIAL, NAME=mat_64
*ELASTIC
  64000.0, 0.3
*PLASTIC
  139.842370323, 0.
 1000.0, 1.67020898966 
** <Bilinear instance: 1 samples>
*MATERIAL, NAME=mat_65
*ELASTIC
  64000.0, 0.3
*PLASTIC
  254.862845891, 0.
 1000.0, 1.44686826041 
** <Bilinear instance: 1 samples>
*MATERIAL, NAME=mat_66
*ELASTIC
  64000.0, 0.3
*PLASTIC
  496.514690786, 0.
 1000.0, 0.977641377115 
** <Bilinear instance: 1 samples>
*MATERIAL, NAME=mat_67
*ELASTIC
  64000.0, 0.3
*PLASTIC
  151.610830829, 0.
 1000.0, 1.64735761004 
** <Bilinear instance: 1 samples>
*MATERIAL, NAME=mat_68
*ELASTIC
  64000.0, 0.3
*PLASTIC
  233.708210368, 0.
 1000.0, 1.48794522259 
** <Bilinear instance: 1 samples>
*MATERIAL, NAME=mat_69
*ELASTIC
  64000.0, 0.3
*PLASTIC
  97.9395173276, 0.
 1000.0, 1.75157375276 
** <Bilinear instance: 1 samples>
*MATERIAL, NAME=mat_70
*ELASTIC
  64000.0, 0.3
*PLASTIC
  100.544139978, 0.
 1000.0, 1.74651623305 
** <Bilinear instance: 1 samples>
*MATERIAL, NAME=mat_71
*ELASTIC
  64000.0, 0.3
*PLASTIC
  77.4607677241, 0.
 1000.0, 1.7913383151 
** <Bilinear instance: 1 samples>
*MATERIAL, NAME=mat_72
*ELASTIC
  64000.0, 0.3
*PLASTIC
  117.155791128, 0.
 1000.0, 1.71426059975 
** <Bilinear instance: 1 samples>
*MATERIAL, NAME=mat_73
*ELASTIC
  64000.0, 0.3
*PLASTIC
  418.790954983, 0.
 1000.0, 1.12856125246 
** <Bilinear instance: 1 samples>
*MATERIAL, NAME=mat_74
*ELASTIC
  64000.0, 0.3
*PLASTIC
  90.9463540434, 0.
 1000.0, 1.7651527106 
** <Bilinear instance: 1 samples>
*MATERIAL, NAME=mat_75
*ELASTIC
  64000.0, 0.3
*PLASTIC
  20.952537895, 0.
 1000.0, 1.90106303321 
** <Bilinear instance: 1 samples>
*MATERIAL, NAME=mat_76
*ELASTIC
  64000.0, 0.3
*PLASTIC
  185.224447845, 0.
 1000.0, 1.58208845079 
** <Bilinear instance: 1 samples>
*MATERIAL, NAME=mat_77
*ELASTIC
  64000.0, 0.3
*PLASTIC
  193.351533619, 0.
 1000.0, 1.56630770171 
** <Bilinear instance: 1 samples>
*MATERIAL, NAME=mat_78
*ELASTIC
  64000.0, 0.3
*PLASTIC
  177.226920691, 0.
 1000.0, 1.59761762973 
** <Bilinear instance: 1 samples>
*MATERIAL, NAME=mat_79
*ELASTIC
  64000.0, 0.3
*PLASTIC
  190.86173972, 0.
 1000.0, 1.57114225297 
** <Bilinear instance: 1 samples>
*MATERIAL, NAME=mat_80
*ELASTIC
  64000.0, 0.3
*PLASTIC
  51.9175199083, 0.
 1000.0, 1.84093685455 
** <Bilinear instance: 1 samples>
*MATERIAL, NAME=mat_81
*ELASTIC
  64000.0, 0.3
*PLASTIC
  160.294062148, 0.
 1000.0, 1.6304969667 
** <Bilinear instance: 1 samples>
*MATERIAL, NAME=mat_82
*ELASTIC
  64000.0, 0.3
*PLASTIC
  166.641849086, 0.
 1000.0, 1.61817116682 
** <Bilinear instance: 1 samples>
*MATERIAL, NAME=mat_83
*ELASTIC
  64000.0, 0.3
*PLASTIC
  90.2400026543, 0.
 1000.0, 1.76652426669 
** <Bilinear instance: 1 samples>
*MATERIAL, NAME=mat_84
*ELASTIC
  64000.0, 0.3
*PLASTIC
  189.931615522, 0.
 1000.0, 1.57294831938 
** <Bilinear instance: 1 samples>
*MATERIAL, NAME=mat_85
*ELASTIC
  64000.0, 0.3
*PLASTIC
  271.785319569, 0.
 1000.0, 1.41400908822 
** <Bilinear instance: 1 samples>
*MATERIAL, NAME=mat_86
*ELASTIC
  64000.0, 0.3
*PLASTIC
  178.620003989, 0.
 1000.0, 1.59491261361 
** <Bilinear instance: 1 samples>
*MATERIAL, NAME=mat_87
*ELASTIC
  64000.0, 0.3
*PLASTIC
  199.47207974, 0.
 1000.0, 1.55442314614 
** <Bilinear instance: 1 samples>
*MATERIAL, NAME=mat_88
*ELASTIC
  64000.0, 0.3
*PLASTIC
  245.81994582, 0.
 1000.0, 1.46442728967 
** <Bilinear instance: 1 samples>
*MATERIAL, NAME=mat_89
*ELASTIC
  64000.0, 0.3
*PLASTIC
  195.306379951, 0.
 1000.0, 1.56251188359 
** <Bilinear instance: 1 samples>
*MATERIAL, NAME=mat_90
*ELASTIC
  64000.0, 0.3
*PLASTIC
  310.852651768, 0.
 1000.0, 1.33815019074 
** <Bilinear instance: 1 samples>
*MATERIAL, NAME=mat_91
*ELASTIC
  64000.0, 0.3
*PLASTIC
  122.811112655, 0.
 1000.0, 1.7032793929 
** <Bilinear instance: 1 samples>
*MATERIAL, NAME=mat_92
*ELASTIC
  64000.0, 0.3
*PLASTIC
  117.020869972, 0.
 1000.0, 1.71452258258 
** <Bilinear instance: 1 samples>
*MATERIAL, NAME=mat_93
*ELASTIC
  64000.0, 0.3
*PLASTIC
  100.341658743, 0.
 1000.0, 1.7469094005 
** <Bilinear instance: 1 samples>
*MATERIAL, NAME=mat_94
*ELASTIC
  64000.0, 0.3
*PLASTIC
  129.43399495, 0.
 1000.0, 1.69041942728 
** <Bilinear instance: 1 samples>
*MATERIAL, NAME=mat_95
*ELASTIC
  64000.0, 0.3
*PLASTIC
  111.914548216, 0.
 1000.0, 1.72443777045 
** <Bilinear instance: 1 samples>
*MATERIAL, NAME=mat_96
*ELASTIC
  64000.0, 0.3
*PLASTIC
  297.579455079, 0.
 1000.0, 1.3639233882 
** <Bilinear instance: 1 samples>
*MATERIAL, NAME=mat_97
*ELASTIC
  64000.0, 0.3
*PLASTIC
  245.396342733, 0.
 1000.0, 1.46524981994 
** <Bilinear instance: 1 samples>
*MATERIAL, NAME=mat_98
*ELASTIC
  64000.0, 0.3
*PLASTIC
  127.315589949, 0.
 1000.0, 1.69453283505 
** <Bilinear instance: 1 samples>
*MATERIAL, NAME=mat_99
*ELASTIC
  64000.0, 0.3
*PLASTIC
  126.988630801, 0.
 1000.0, 1.69516770718 
** <Bilinear instance: 1 samples>
*MATERIAL, NAME=mat_100
*ELASTIC
  64000.0, 0.3
*PLASTIC
  124.732648577, 0.
 1000.0, 1.69954825519 
** <Bilinear instance: 1 samples>
*MATERIAL, NAME=mat_101
*ELASTIC
  64000.0, 0.3
*PLASTIC
  175.567994799, 0.
 1000.0, 1.60083884505 
** <Bilinear instance: 1 samples>
*MATERIAL, NAME=mat_102
*ELASTIC
  64000.0, 0.3
*PLASTIC
  287.674609455, 0.
 1000.0, 1.38315609814 
** <Bilinear instance: 1 samples>
*MATERIAL, NAME=mat_103
*ELASTIC
  64000.0, 0.3
*PLASTIC
  165.928973351, 0.
 1000.0, 1.61955539155 
** <Bilinear instance: 1 samples>
*MATERIAL, NAME=mat_104
*ELASTIC
  64000.0, 0.3
*PLASTIC
  135.504933518, 0.
 1000.0, 1.67863119705 
** <Bilinear instance: 1 samples>
*MATERIAL, NAME=mat_105
*ELASTIC
  64000.0, 0.3
*PLASTIC
  220.103313693, 0.
 1000.0, 1.51436249768 
** <Bilinear instance: 1 samples>
*MATERIAL, NAME=mat_106
*ELASTIC
  64000.0, 0.3
*PLASTIC
  148.662816373, 0.
 1000.0, 1.65308190995 
** <Bilinear instance: 1 samples>
*MATERIAL, NAME=mat_107
*ELASTIC
  64000.0, 0.3
*PLASTIC
  56.6695354975, 0.
 1000.0, 1.83170963981 
** <Bilinear instance: 1 samples>
*MATERIAL, NAME=mat_108
*ELASTIC
  64000.0, 0.3
*PLASTIC
  28.4042412657, 0.
 1000.0, 1.88659370628 
** <Bilinear instance: 1 samples>
*MATERIAL, NAME=mat_109
*ELASTIC
  64000.0, 0.3
*PLASTIC
  122.298715754, 0.
 1000.0, 1.70427433834 
** <Bilinear instance: 1 samples>
*MATERIAL, NAME=mat_110
*ELASTIC
  64000.0, 0.3
*PLASTIC
  123.363637746, 0.
 1000.0, 1.70220652865 
** <Bilinear instance: 1 samples>
*MATERIAL, NAME=mat_111
*ELASTIC
  64000.0, 0.3
*PLASTIC
  127.928093728, 0.
 1000.0, 1.69334350732 
** <Bilinear instance: 1 samples>
*MATERIAL, NAME=mat_112
*ELASTIC
  64000.0, 0.3
*PLASTIC
  170.583906931, 0.
 1000.0, 1.61051668557 
** <Bilinear instance: 1 samples>
*MATERIAL, NAME=mat_113
*ELASTIC
  64000.0, 0.3
*PLASTIC
  121.927951225, 0.
 1000.0, 1.70499426947 
** <Bilinear instance: 1 samples>
*MATERIAL, NAME=mat_114
*ELASTIC
  64000.0, 0.3
*PLASTIC
  308.903735762, 0.
 1000.0, 1.34193449367 
** <Bilinear instance: 1 samples>
*MATERIAL, NAME=mat_115
*ELASTIC
  64000.0, 0.3
*PLASTIC
  150.162037546, 0.
 1000.0, 1.65017080088 
** <Bilinear instance: 1 samples>
*MATERIAL, NAME=mat_116
*ELASTIC
  64000.0, 0.3
*PLASTIC
  232.365028364, 0.
 1000.0, 1.49055334298 
** <Bilinear instance: 1 samples>
*MATERIAL, NAME=mat_117
*ELASTIC
  64000.0, 0.3
*PLASTIC
  194.88562966, 0.
 1000.0, 1.56332887445 
** <Bilinear instance: 1 samples>
*MATERIAL, NAME=mat_118
*ELASTIC
  64000.0, 0.3
*PLASTIC
  159.508440635, 0.
 1000.0, 1.63202244537 
** <Bilinear instance: 1 samples>
*MATERIAL, NAME=mat_119
*ELASTIC
  64000.0, 0.3
*PLASTIC
  173.20216473, 0.
 1000.0, 1.60543268985 
** <Bilinear instance: 1 samples>
*MATERIAL, NAME=mat_120
*ELASTIC
  64000.0, 0.3
*PLASTIC
  193.263945237, 0.
 1000.0, 1.56647777624 
** <Bilinear instance: 1 samples>
*MATERIAL, NAME=mat_121
*ELASTIC
  64000.0, 0.3
*PLASTIC
  157.181114759, 0.
 1000.0, 1.63654152474 
** <Bilinear instance: 1 samples>
*MATERIAL, NAME=mat_122
*ELASTIC
  64000.0, 0.3
*PLASTIC
  96.9740040985, 0.
 1000.0, 1.75344853573 
** <Bilinear instance: 1 samples>
*MATERIAL, NAME=mat_123
*ELASTIC
  64000.0, 0.3
*PLASTIC
  100.835303744, 0.
 1000.0, 1.74595086652 
** <Bilinear instance: 1 samples>
*MATERIAL, NAME=mat_124
*ELASTIC
  64000.0, 0.3
*PLASTIC
  125.21171444, 0.
 1000.0, 1.69861803021 
** <Bilinear instance: 1 samples>
*MATERIAL, NAME=mat_125
*ELASTIC
  64000.0, 0.3
*PLASTIC
  427.21029295, 0.
 1000.0, 1.1122130234 
**----------------------------------
** STEPS
*Step, Name=Loading0, Nlgeom=YES, Inc=1000000
*Static
0.01, 1, 1e-08, 0.01
** BOUNDARY CONDITIONS
*Boundary

iSample.origin, 2,2
iSample.origin, 1,1
iSample.origin, 3,3,
iSample.bottomfrontleft, 1, 1

iSample.bottom, 2, 2
iSample.bottomright, 2, 2
iSample.bottomrear, 2,2
iSample.bottomleft, 2,2
iSample.bottomfront, 2,2
iSample.refy,2,2
iSample.bottomrearright, 2,2
iSample.bottomfrontleft, 2,2
iSample.PILOT,    2, 2,0.1
** LOADS

** RESTART OPTIONS 
*Restart, write, frequency=0
** FIELD OUTPUTS
*Output, field, frequency=1
*Node Output
U
*Element Output, directions=YES
E, PE, EE, PEEQ, S
** HYSTORY OUTPUTS
*Output, history
*Energy Output
ALLPD, ALLSE, ALLWK
*Node Output, nset=iSample.Top
RF2
*Node Output, nset=iSample.pilot
RF2
*Node Output, nset=iSample.Top
CF2
*Node Output, nset=iSample.pilot
CF2
*Node Output, nset=iSample.TopLeft
U2
*Node Output, nset=iSample.Left
COOR1
*Node Output, nset=iSample.Right
COOR1
*Element Output, elset=iSample.allElements, directions=NO
EVOL
*End Step
  