**----------------------------------
**DISTRIBUTED MECHANICAL PROPERTIES
**----------------------------------
**HEADER
*Preprint, echo=NO, model=NO, history=NO, contact=NO
**----------------------------------
** PART "pSAMPLE" DEFINITION
*Part, name = pSample
**----------------------------------
** NODES
**----------------------------------
*Node, NSET=ALLNODES
  1, 0.0, 0.0, 0.0
  2, 0.0500000007451, 0.0, 0.0
  3, 0.10000000149, 0.0, 0.0
  4, 0.15000000596, 0.0, 0.0
  5, 0.20000000298, 0.0, 0.0
  6, 0.25, 0.0, 0.0
  7, 0.300000011921, 0.0, 0.0
  8, 0.34999999404, 0.0, 0.0
  9, 0.40000000596, 0.0, 0.0
  10, 0.449999988079, 0.0, 0.0
  11, 0.5, 0.0, 0.0
  12, 0.550000011921, 0.0, 0.0
  13, 0.600000023842, 0.0, 0.0
  14, 0.649999976158, 0.0, 0.0
  15, 0.699999988079, 0.0, 0.0
  16, 0.75, 0.0, 0.0
  17, 0.800000011921, 0.0, 0.0
  18, 0.850000023842, 0.0, 0.0
  19, 0.899999976158, 0.0, 0.0
  20, 0.949999988079, 0.0, 0.0
** ... 421 like lines cut
**----------------------------------
** NODE SETS
**----------------------------------
*NSET, NSET=TOPLEFT
421,
*NSET, NSET=RIGHT
21,42,63,84,105,126,147,168,189,
210,231,252,273,294,315,336,357,378,
399,420,441,
*NSET, NSET=BOTTOMLEFT
1,
*NSET, NSET=BOTTOMRIGHT
21,
*NSET, NSET=BOTTOM
1,2,3,4,5,6,7,8,9,
10,11,12,13,14,15,16,17,18,
19,20,21,
*NSET, NSET=TOP
421,422,423,424,425,426,427,428,429,
430,431,432,433,434,435,436,437,438,
439,440,441,
*NSET, NSET=TOPRIGHT
441,
*NSET, NSET=LEFT
1,22,43,64,85,106,127,148,169,
190,211,232,253,274,295,316,337,358,
379,400,421,
**----------------------------------
** ELEMENTS
**----------------------------------
*ELEMENT, TYPE=CPE4, ELSET=CPE4_ELEMENTS
  1, 1, 2, 23, 22, 
  2, 2, 3, 24, 23, 
  3, 3, 4, 25, 24, 
  4, 4, 5, 26, 25, 
  5, 5, 6, 27, 26, 
  6, 6, 7, 28, 27, 
  7, 7, 8, 29, 28, 
  8, 8, 9, 30, 29, 
  9, 9, 10, 31, 30, 
  10, 10, 11, 32, 31, 
  11, 11, 12, 33, 32, 
  12, 12, 13, 34, 33, 
  13, 13, 14, 35, 34, 
  14, 14, 15, 36, 35, 
  15, 15, 16, 37, 36, 
  16, 16, 17, 38, 37, 
  17, 17, 18, 39, 38, 
  18, 18, 19, 40, 39, 
  19, 19, 20, 41, 40, 
  20, 20, 21, 42, 41, 
** ... 380 like lines cut
**----------------------------------
** ELEMENT SETS
**----------------------------------
*ELSET, ELSET=ALLELEMENTS
  1, 2, 3, 4, 5, 6, 7, 8, 9,
 10, 11, 12, 13, 14, 15, 16, 17, 18,
 19, 20, 21, 22, 23, 24, 25, 26, 27,
 28, 29, 30, 31, 32, 33, 34, 35, 36,
 37, 38, 39, 40, 41, 42, 43, 44, 45,
 46, 47, 48, 49, 50, 51, 52, 53, 54,
 55, 56, 57, 58, 59, 60, 61, 62, 63,
 64, 65, 66, 67, 68, 69, 70, 71, 72,
 73, 74, 75, 76, 77, 78, 79, 80, 81,
 82, 83, 84, 85, 86, 87, 88, 89, 90,
 91, 92, 93, 94, 95, 96, 97, 98, 99,
 100, 101, 102, 103, 104, 105, 106, 107, 108,
 109, 110, 111, 112, 113, 114, 115, 116, 117,
 118, 119, 120, 121, 122, 123, 124, 125, 126,
 127, 128, 129, 130, 131, 132, 133, 134, 135,
 136, 137, 138, 139, 140, 141, 142, 143, 144,
 145, 146, 147, 148, 149, 150, 151, 152, 153,
 154, 155, 156, 157, 158, 159, 160, 161, 162,
 163, 164, 165, 166, 167, 168, 169, 170, 171,
 172, 173, 174, 175, 176, 177, 178, 179, 180,
** ... 25 like lines cut
**----------------------------------
** ELEMENT SURFACES
**----------------------------------
*Solid Section, elset=Elset1, material=mat_1
*Elset, Elset=Elset1
1,
*Solid Section, elset=Elset2, material=mat_2
*Elset, Elset=Elset2
2,
*Solid Section, elset=Elset3, material=mat_3
*Elset, Elset=Elset3
3,
*Solid Section, elset=Elset4, material=mat_4
*Elset, Elset=Elset4
4,
*Solid Section, elset=Elset5, material=mat_5
*Elset, Elset=Elset5
5,
*Solid Section, elset=Elset6, material=mat_6
*Elset, Elset=Elset6
6,
*Solid Section, elset=Elset7, material=mat_7
*Elset, Elset=Elset7
7,
*Solid Section, elset=Elset8, material=mat_8
*Elset, Elset=Elset8
8,
*Solid Section, elset=Elset9, material=mat_9
*Elset, Elset=Elset9
9,
*Solid Section, elset=Elset10, material=mat_10
*Elset, Elset=Elset10
10,
*Solid Section, elset=Elset11, material=mat_11
*Elset, Elset=Elset11
11,
*Solid Section, elset=Elset12, material=mat_12
*Elset, Elset=Elset12
12,
*Solid Section, elset=Elset13, material=mat_13
*Elset, Elset=Elset13
13,
*Solid Section, elset=Elset14, material=mat_14
*Elset, Elset=Elset14
14,
*Solid Section, elset=Elset15, material=mat_15
*Elset, Elset=Elset15
15,
*Solid Section, elset=Elset16, material=mat_16
*Elset, Elset=Elset16
16,
*Solid Section, elset=Elset17, material=mat_17
*Elset, Elset=Elset17
17,
*Solid Section, elset=Elset18, material=mat_18
*Elset, Elset=Elset18
18,
*Solid Section, elset=Elset19, material=mat_19
*Elset, Elset=Elset19
19,
*Solid Section, elset=Elset20, material=mat_20
*Elset, Elset=Elset20
20,
** ... 1140 like lines cut
*End part
**----------------------------------
** ASSEMBLY
*Assembly, name = Assembly
*Instance, name=iSample, part=pSample
*End Instance
*End Assembly
**----------------------------------
** MATERIALS
** <VonMises instance: 1 samples>
*MATERIAL, NAME=mat_1
*ELASTIC
  1.0, 0.3
*PLASTIC
  0.0149317348508, 0.
** <VonMises instance: 1 samples>
*MATERIAL, NAME=mat_2
*ELASTIC
  1.0, 0.3
*PLASTIC
  0.0161332856089, 0.
** <VonMises instance: 1 samples>
*MATERIAL, NAME=mat_3
*ELASTIC
  1.0, 0.3
*PLASTIC
  0.012888148999, 0.
** <VonMises instance: 1 samples>
*MATERIAL, NAME=mat_4
*ELASTIC
  1.0, 0.3
*PLASTIC
  0.0034551440933, 0.
** <VonMises instance: 1 samples>
*MATERIAL, NAME=mat_5
*ELASTIC
  1.0, 0.3
*PLASTIC
  0.015458808572, 0.
** <VonMises instance: 1 samples>
*MATERIAL, NAME=mat_6
*ELASTIC
  1.0, 0.3
*PLASTIC
  0.0123531077475, 0.
** <VonMises instance: 1 samples>
*MATERIAL, NAME=mat_7
*ELASTIC
  1.0, 0.3
*PLASTIC
  0.00845983128582, 0.
** <VonMises instance: 1 samples>
*MATERIAL, NAME=mat_8
*ELASTIC
  1.0, 0.3
*PLASTIC
  0.0186307171155, 0.
** <VonMises instance: 1 samples>
*MATERIAL, NAME=mat_9
*ELASTIC
  1.0, 0.3
*PLASTIC
  0.0220921493333, 0.
** <VonMises instance: 1 samples>
*MATERIAL, NAME=mat_10
*ELASTIC
  1.0, 0.3
*PLASTIC
  0.0145230989179, 0.
** <VonMises instance: 1 samples>
*MATERIAL, NAME=mat_11
*ELASTIC
  1.0, 0.3
*PLASTIC
  0.00249108076091, 0.
** <VonMises instance: 1 samples>
*MATERIAL, NAME=mat_12
*ELASTIC
  1.0, 0.3
*PLASTIC
  0.0118917858884, 0.
** <VonMises instance: 1 samples>
*MATERIAL, NAME=mat_13
*ELASTIC
  1.0, 0.3
*PLASTIC
  0.013480812709, 0.
** <VonMises instance: 1 samples>
*MATERIAL, NAME=mat_14
*ELASTIC
  1.0, 0.3
*PLASTIC
  0.0114311851739, 0.
** <VonMises instance: 1 samples>
*MATERIAL, NAME=mat_15
*ELASTIC
  1.0, 0.3
*PLASTIC
  0.00802927305831, 0.
** <VonMises instance: 1 samples>
*MATERIAL, NAME=mat_16
*ELASTIC
  1.0, 0.3
*PLASTIC
  0.0163309649801, 0.
** <VonMises instance: 1 samples>
*MATERIAL, NAME=mat_17
*ELASTIC
  1.0, 0.3
*PLASTIC
  0.0108492427857, 0.
** <VonMises instance: 1 samples>
*MATERIAL, NAME=mat_18
*ELASTIC
  1.0, 0.3
*PLASTIC
  0.00886899033184, 0.
** <VonMises instance: 1 samples>
*MATERIAL, NAME=mat_19
*ELASTIC
  1.0, 0.3
*PLASTIC
  0.0195213289256, 0.
** <VonMises instance: 1 samples>
*MATERIAL, NAME=mat_20
*ELASTIC
  1.0, 0.3
*PLASTIC
  0.0059735032455, 0.
** <VonMises instance: 1 samples>
*MATERIAL, NAME=mat_21
*ELASTIC
  1.0, 0.3
*PLASTIC
  0.00517749941829, 0.
** <VonMises instance: 1 samples>
*MATERIAL, NAME=mat_22
*ELASTIC
  1.0, 0.3
*PLASTIC
  0.00826369881817, 0.
** <VonMises instance: 1 samples>
*MATERIAL, NAME=mat_23
*ELASTIC
  1.0, 0.3
*PLASTIC
  0.00866887271453, 0.
** <VonMises instance: 1 samples>
*MATERIAL, NAME=mat_24
*ELASTIC
  1.0, 0.3
*PLASTIC
  0.00937684456313, 0.
** <VonMises instance: 1 samples>
*MATERIAL, NAME=mat_25
*ELASTIC
  1.0, 0.3
*PLASTIC
  0.0190301845581, 0.
** <VonMises instance: 1 samples>
*MATERIAL, NAME=mat_26
*ELASTIC
  1.0, 0.3
*PLASTIC
  0.0100266791981, 0.
** <VonMises instance: 1 samples>
*MATERIAL, NAME=mat_27
*ELASTIC
  1.0, 0.3
*PLASTIC
  0.0173489891035, 0.
** <VonMises instance: 1 samples>
*MATERIAL, NAME=mat_28
*ELASTIC
  1.0, 0.3
*PLASTIC
  0.0126346529577, 0.
** <VonMises instance: 1 samples>
*MATERIAL, NAME=mat_29
*ELASTIC
  1.0, 0.3
*PLASTIC
  0.0148923825995, 0.
** <VonMises instance: 1 samples>
*MATERIAL, NAME=mat_30
*ELASTIC
  1.0, 0.3
*PLASTIC
  0.0115847510298, 0.
** <VonMises instance: 1 samples>
*MATERIAL, NAME=mat_31
*ELASTIC
  1.0, 0.3
*PLASTIC
  0.00586161703553, 0.
** <VonMises instance: 1 samples>
*MATERIAL, NAME=mat_32
*ELASTIC
  1.0, 0.3
*PLASTIC
  0.0152304220256, 0.
** <VonMises instance: 1 samples>
*MATERIAL, NAME=mat_33
*ELASTIC
  1.0, 0.3
*PLASTIC
  0.00719786911116, 0.
** <VonMises instance: 1 samples>
*MATERIAL, NAME=mat_34
*ELASTIC
  1.0, 0.3
*PLASTIC
  0.0106622375902, 0.
** <VonMises instance: 1 samples>
*MATERIAL, NAME=mat_35
*ELASTIC
  1.0, 0.3
*PLASTIC
  0.0110882114253, 0.
** <VonMises instance: 1 samples>
*MATERIAL, NAME=mat_36
*ELASTIC
  1.0, 0.3
*PLASTIC
  0.027889781785, 0.
** <VonMises instance: 1 samples>
*MATERIAL, NAME=mat_37
*ELASTIC
  1.0, 0.3
*PLASTIC
  0.00825427394527, 0.
** <VonMises instance: 1 samples>
*MATERIAL, NAME=mat_38
*ELASTIC
  1.0, 0.3
*PLASTIC
  0.00669085369201, 0.
** <VonMises instance: 1 samples>
*MATERIAL, NAME=mat_39
*ELASTIC
  1.0, 0.3
*PLASTIC
  0.0113486108873, 0.
** <VonMises instance: 1 samples>
*MATERIAL, NAME=mat_40
*ELASTIC
  1.0, 0.3
*PLASTIC
  0.0164365276258, 0.
** <VonMises instance: 1 samples>
*MATERIAL, NAME=mat_41
*ELASTIC
  1.0, 0.3
*PLASTIC
  0.0291318893644, 0.
** <VonMises instance: 1 samples>
*MATERIAL, NAME=mat_42
*ELASTIC
  1.0, 0.3
*PLASTIC
  0.0263896584299, 0.
** <VonMises instance: 1 samples>
*MATERIAL, NAME=mat_43
*ELASTIC
  1.0, 0.3
*PLASTIC
  0.00886188634342, 0.
** <VonMises instance: 1 samples>
*MATERIAL, NAME=mat_44
*ELASTIC
  1.0, 0.3
*PLASTIC
  0.00781095756512, 0.
** <VonMises instance: 1 samples>
*MATERIAL, NAME=mat_45
*ELASTIC
  1.0, 0.3
*PLASTIC
  0.0089549722177, 0.
** <VonMises instance: 1 samples>
*MATERIAL, NAME=mat_46
*ELASTIC
  1.0, 0.3
*PLASTIC
  0.0122031024592, 0.
** <VonMises instance: 1 samples>
*MATERIAL, NAME=mat_47
*ELASTIC
  1.0, 0.3
*PLASTIC
  0.0145529200566, 0.
** <VonMises instance: 1 samples>
*MATERIAL, NAME=mat_48
*ELASTIC
  1.0, 0.3
*PLASTIC
  0.00893518638332, 0.
** <VonMises instance: 1 samples>
*MATERIAL, NAME=mat_49
*ELASTIC
  1.0, 0.3
*PLASTIC
  0.00502923600959, 0.
** <VonMises instance: 1 samples>
*MATERIAL, NAME=mat_50
*ELASTIC
  1.0, 0.3
*PLASTIC
  0.0264301994915, 0.
** <VonMises instance: 1 samples>
*MATERIAL, NAME=mat_51
*ELASTIC
  1.0, 0.3
*PLASTIC
  0.0229709252161, 0.
** <VonMises instance: 1 samples>
*MATERIAL, NAME=mat_52
*ELASTIC
  1.0, 0.3
*PLASTIC
  0.0227523933832, 0.
** <VonMises instance: 1 samples>
*MATERIAL, NAME=mat_53
*ELASTIC
  1.0, 0.3
*PLASTIC
  0.00903866748402, 0.
** <VonMises instance: 1 samples>
*MATERIAL, NAME=mat_54
*ELASTIC
  1.0, 0.3
*PLASTIC
  0.0206008962168, 0.
** <VonMises instance: 1 samples>
*MATERIAL, NAME=mat_55
*ELASTIC
  1.0, 0.3
*PLASTIC
  0.0117433590964, 0.
** <VonMises instance: 1 samples>
*MATERIAL, NAME=mat_56
*ELASTIC
  1.0, 0.3
*PLASTIC
  0.00107759209063, 0.
** <VonMises instance: 1 samples>
*MATERIAL, NAME=mat_57
*ELASTIC
  1.0, 0.3
*PLASTIC
  0.00890923786301, 0.
** <VonMises instance: 1 samples>
*MATERIAL, NAME=mat_58
*ELASTIC
  1.0, 0.3
*PLASTIC
  0.0138664857584, 0.
** <VonMises instance: 1 samples>
*MATERIAL, NAME=mat_59
*ELASTIC
  1.0, 0.3
*PLASTIC
  0.0174459432252, 0.
** <VonMises instance: 1 samples>
*MATERIAL, NAME=mat_60
*ELASTIC
  1.0, 0.3
*PLASTIC
  0.015887578588, 0.
** <VonMises instance: 1 samples>
*MATERIAL, NAME=mat_61
*ELASTIC
  1.0, 0.3
*PLASTIC
  0.00481907037974, 0.
** <VonMises instance: 1 samples>
*MATERIAL, NAME=mat_62
*ELASTIC
  1.0, 0.3
*PLASTIC
  0.0109422223143, 0.
** <VonMises instance: 1 samples>
*MATERIAL, NAME=mat_63
*ELASTIC
  1.0, 0.3
*PLASTIC
  0.00894546449197, 0.
** <VonMises instance: 1 samples>
*MATERIAL, NAME=mat_64
*ELASTIC
  1.0, 0.3
*PLASTIC
  0.0138906092654, 0.
** <VonMises instance: 1 samples>
*MATERIAL, NAME=mat_65
*ELASTIC
  1.0, 0.3
*PLASTIC
  0.0143356246184, 0.
** <VonMises instance: 1 samples>
*MATERIAL, NAME=mat_66
*ELASTIC
  1.0, 0.3
*PLASTIC
  0.0166895274203, 0.
** <VonMises instance: 1 samples>
*MATERIAL, NAME=mat_67
*ELASTIC
  1.0, 0.3
*PLASTIC
  0.00908903920703, 0.
** <VonMises instance: 1 samples>
*MATERIAL, NAME=mat_68
*ELASTIC
  1.0, 0.3
*PLASTIC
  0.00760334512972, 0.
** <VonMises instance: 1 samples>
*MATERIAL, NAME=mat_69
*ELASTIC
  1.0, 0.3
*PLASTIC
  0.00329973781102, 0.
** <VonMises instance: 1 samples>
*MATERIAL, NAME=mat_70
*ELASTIC
  1.0, 0.3
*PLASTIC
  0.00863920552251, 0.
** <VonMises instance: 1 samples>
*MATERIAL, NAME=mat_71
*ELASTIC
  1.0, 0.3
*PLASTIC
  0.00634651085347, 0.
** <VonMises instance: 1 samples>
*MATERIAL, NAME=mat_72
*ELASTIC
  1.0, 0.3
*PLASTIC
  0.0206034349371, 0.
** <VonMises instance: 1 samples>
*MATERIAL, NAME=mat_73
*ELASTIC
  1.0, 0.3
*PLASTIC
  0.0189925635309, 0.
** <VonMises instance: 1 samples>
*MATERIAL, NAME=mat_74
*ELASTIC
  1.0, 0.3
*PLASTIC
  0.0184180650858, 0.
** <VonMises instance: 1 samples>
*MATERIAL, NAME=mat_75
*ELASTIC
  1.0, 0.3
*PLASTIC
  0.0166907484845, 0.
** <VonMises instance: 1 samples>
*MATERIAL, NAME=mat_76
*ELASTIC
  1.0, 0.3
*PLASTIC
  0.0153024183367, 0.
** <VonMises instance: 1 samples>
*MATERIAL, NAME=mat_77
*ELASTIC
  1.0, 0.3
*PLASTIC
  0.00892568955502, 0.
** <VonMises instance: 1 samples>
*MATERIAL, NAME=mat_78
*ELASTIC
  1.0, 0.3
*PLASTIC
  0.0112230270682, 0.
** <VonMises instance: 1 samples>
*MATERIAL, NAME=mat_79
*ELASTIC
  1.0, 0.3
*PLASTIC
  0.00874716630588, 0.
** <VonMises instance: 1 samples>
*MATERIAL, NAME=mat_80
*ELASTIC
  1.0, 0.3
*PLASTIC
  0.00836965861037, 0.
** <VonMises instance: 1 samples>
*MATERIAL, NAME=mat_81
*ELASTIC
  1.0, 0.3
*PLASTIC
  0.00379691899634, 0.
** <VonMises instance: 1 samples>
*MATERIAL, NAME=mat_82
*ELASTIC
  1.0, 0.3
*PLASTIC
  0.00171006828749, 0.
** <VonMises instance: 1 samples>
*MATERIAL, NAME=mat_83
*ELASTIC
  1.0, 0.3
*PLASTIC
  0.0104855946017, 0.
** <VonMises instance: 1 samples>
*MATERIAL, NAME=mat_84
*ELASTIC
  1.0, 0.3
*PLASTIC
  0.0161684780839, 0.
** <VonMises instance: 1 samples>
*MATERIAL, NAME=mat_85
*ELASTIC
  1.0, 0.3
*PLASTIC
  0.0109805252759, 0.
** <VonMises instance: 1 samples>
*MATERIAL, NAME=mat_86
*ELASTIC
  1.0, 0.3
*PLASTIC
  0.00704252340398, 0.
** <VonMises instance: 1 samples>
*MATERIAL, NAME=mat_87
*ELASTIC
  1.0, 0.3
*PLASTIC
  0.0102831038302, 0.
** <VonMises instance: 1 samples>
*MATERIAL, NAME=mat_88
*ELASTIC
  1.0, 0.3
*PLASTIC
  0.00716372892582, 0.
** <VonMises instance: 1 samples>
*MATERIAL, NAME=mat_89
*ELASTIC
  1.0, 0.3
*PLASTIC
  0.00954350976956, 0.
** <VonMises instance: 1 samples>
*MATERIAL, NAME=mat_90
*ELASTIC
  1.0, 0.3
*PLASTIC
  0.00731724786761, 0.
** <VonMises instance: 1 samples>
*MATERIAL, NAME=mat_91
*ELASTIC
  1.0, 0.3
*PLASTIC
  0.00676277572278, 0.
** <VonMises instance: 1 samples>
*MATERIAL, NAME=mat_92
*ELASTIC
  1.0, 0.3
*PLASTIC
  0.00792999138087, 0.
** <VonMises instance: 1 samples>
*MATERIAL, NAME=mat_93
*ELASTIC
  1.0, 0.3
*PLASTIC
  0.00959597094094, 0.
** <VonMises instance: 1 samples>
*MATERIAL, NAME=mat_94
*ELASTIC
  1.0, 0.3
*PLASTIC
  0.0179592796383, 0.
** <VonMises instance: 1 samples>
*MATERIAL, NAME=mat_95
*ELASTIC
  1.0, 0.3
*PLASTIC
  0.0084054478888, 0.
** <VonMises instance: 1 samples>
*MATERIAL, NAME=mat_96
*ELASTIC
  1.0, 0.3
*PLASTIC
  0.0116705637512, 0.
** <VonMises instance: 1 samples>
*MATERIAL, NAME=mat_97
*ELASTIC
  1.0, 0.3
*PLASTIC
  0.00240241751578, 0.
** <VonMises instance: 1 samples>
*MATERIAL, NAME=mat_98
*ELASTIC
  1.0, 0.3
*PLASTIC
  0.0013550707892, 0.
** <VonMises instance: 1 samples>
*MATERIAL, NAME=mat_99
*ELASTIC
  1.0, 0.3
*PLASTIC
  0.00729233901915, 0.
** <VonMises instance: 1 samples>
*MATERIAL, NAME=mat_100
*ELASTIC
  1.0, 0.3
*PLASTIC
  0.0154081408208, 0.
** <VonMises instance: 1 samples>
*MATERIAL, NAME=mat_101
*ELASTIC
  1.0, 0.3
*PLASTIC
  0.0105337709421, 0.
** <VonMises instance: 1 samples>
*MATERIAL, NAME=mat_102
*ELASTIC
  1.0, 0.3
*PLASTIC
  0.00513756634331, 0.
** <VonMises instance: 1 samples>
*MATERIAL, NAME=mat_103
*ELASTIC
  1.0, 0.3
*PLASTIC
  0.00255464682017, 0.
** <VonMises instance: 1 samples>
*MATERIAL, NAME=mat_104
*ELASTIC
  1.0, 0.3
*PLASTIC
  0.0121216412731, 0.
** <VonMises instance: 1 samples>
*MATERIAL, NAME=mat_105
*ELASTIC
  1.0, 0.3
*PLASTIC
  0.0044497166976, 0.
** <VonMises instance: 1 samples>
*MATERIAL, NAME=mat_106
*ELASTIC
  1.0, 0.3
*PLASTIC
  0.0143518643277, 0.
** <VonMises instance: 1 samples>
*MATERIAL, NAME=mat_107
*ELASTIC
  1.0, 0.3
*PLASTIC
  0.0132394695305, 0.
** <VonMises instance: 1 samples>
*MATERIAL, NAME=mat_108
*ELASTIC
  1.0, 0.3
*PLASTIC
  0.0182528633509, 0.
** <VonMises instance: 1 samples>
*MATERIAL, NAME=mat_109
*ELASTIC
  1.0, 0.3
*PLASTIC
  0.0159941325902, 0.
** <VonMises instance: 1 samples>
*MATERIAL, NAME=mat_110
*ELASTIC
  1.0, 0.3
*PLASTIC
  0.00322550662209, 0.
** <VonMises instance: 1 samples>
*MATERIAL, NAME=mat_111
*ELASTIC
  1.0, 0.3
*PLASTIC
  0.00630488966025, 0.
** <VonMises instance: 1 samples>
*MATERIAL, NAME=mat_112
*ELASTIC
  1.0, 0.3
*PLASTIC
  0.0116472560313, 0.
** <VonMises instance: 1 samples>
*MATERIAL, NAME=mat_113
*ELASTIC
  1.0, 0.3
*PLASTIC
  0.0106438515023, 0.
** <VonMises instance: 1 samples>
*MATERIAL, NAME=mat_114
*ELASTIC
  1.0, 0.3
*PLASTIC
  0.0254046378255, 0.
** <VonMises instance: 1 samples>
*MATERIAL, NAME=mat_115
*ELASTIC
  1.0, 0.3
*PLASTIC
  0.0112220198022, 0.
** <VonMises instance: 1 samples>
*MATERIAL, NAME=mat_116
*ELASTIC
  1.0, 0.3
*PLASTIC
  0.0200352957459, 0.
** <VonMises instance: 1 samples>
*MATERIAL, NAME=mat_117
*ELASTIC
  1.0, 0.3
*PLASTIC
  0.0086866972665, 0.
** <VonMises instance: 1 samples>
*MATERIAL, NAME=mat_118
*ELASTIC
  1.0, 0.3
*PLASTIC
  0.00418594604708, 0.
** <VonMises instance: 1 samples>
*MATERIAL, NAME=mat_119
*ELASTIC
  1.0, 0.3
*PLASTIC
  0.00159764539844, 0.
** <VonMises instance: 1 samples>
*MATERIAL, NAME=mat_120
*ELASTIC
  1.0, 0.3
*PLASTIC
  0.0156722701838, 0.
** <VonMises instance: 1 samples>
*MATERIAL, NAME=mat_121
*ELASTIC
  1.0, 0.3
*PLASTIC
  0.0130952129909, 0.
** <VonMises instance: 1 samples>
*MATERIAL, NAME=mat_122
*ELASTIC
  1.0, 0.3
*PLASTIC
  0.0184599594946, 0.
** <VonMises instance: 1 samples>
*MATERIAL, NAME=mat_123
*ELASTIC
  1.0, 0.3
*PLASTIC
  0.0050655717852, 0.
** <VonMises instance: 1 samples>
*MATERIAL, NAME=mat_124
*ELASTIC
  1.0, 0.3
*PLASTIC
  0.0130035156201, 0.
** <VonMises instance: 1 samples>
*MATERIAL, NAME=mat_125
*ELASTIC
  1.0, 0.3
*PLASTIC
  0.00832047030097, 0.
** <VonMises instance: 1 samples>
*MATERIAL, NAME=mat_126
*ELASTIC
  1.0, 0.3
*PLASTIC
  0.0153529005402, 0.
** <VonMises instance: 1 samples>
*MATERIAL, NAME=mat_127
*ELASTIC
  1.0, 0.3
*PLASTIC
  0.0169276758027, 0.
** <VonMises instance: 1 samples>
*MATERIAL, NAME=mat_128
*ELASTIC
  1.0, 0.3
*PLASTIC
  0.0200428120378, 0.
** <VonMises instance: 1 samples>
*MATERIAL, NAME=mat_129
*ELASTIC
  1.0, 0.3
*PLASTIC
  0.00851879568654, 0.
** <VonMises instance: 1 samples>
*MATERIAL, NAME=mat_130
*ELASTIC
  1.0, 0.3
*PLASTIC
  0.0100597911053, 0.
** <VonMises instance: 1 samples>
*MATERIAL, NAME=mat_131
*ELASTIC
  1.0, 0.3
*PLASTIC
  0.00435599460001, 0.
** <VonMises instance: 1 samples>
*MATERIAL, NAME=mat_132
*ELASTIC
  1.0, 0.3
*PLASTIC
  0.0114118469021, 0.
** <VonMises instance: 1 samples>
*MATERIAL, NAME=mat_133
*ELASTIC
  1.0, 0.3
*PLASTIC
  0.0205590443696, 0.
** <VonMises instance: 1 samples>
*MATERIAL, NAME=mat_134
*ELASTIC
  1.0, 0.3
*PLASTIC
  0.0113668563068, 0.
** <VonMises instance: 1 samples>
*MATERIAL, NAME=mat_135
*ELASTIC
  1.0, 0.3
*PLASTIC
  0.023056885742, 0.
** <VonMises instance: 1 samples>
*MATERIAL, NAME=mat_136
*ELASTIC
  1.0, 0.3
*PLASTIC
  0.0275257201924, 0.
** <VonMises instance: 1 samples>
*MATERIAL, NAME=mat_137
*ELASTIC
  1.0, 0.3
*PLASTIC
  0.00751122330127, 0.
** <VonMises instance: 1 samples>
*MATERIAL, NAME=mat_138
*ELASTIC
  1.0, 0.3
*PLASTIC
  0.0053047362166, 0.
** <VonMises instance: 1 samples>
*MATERIAL, NAME=mat_139
*ELASTIC
  1.0, 0.3
*PLASTIC
  0.0244701195456, 0.
** <VonMises instance: 1 samples>
*MATERIAL, NAME=mat_140
*ELASTIC
  1.0, 0.3
*PLASTIC
  0.0116921366561, 0.
** <VonMises instance: 1 samples>
*MATERIAL, NAME=mat_141
*ELASTIC
  1.0, 0.3
*PLASTIC
  0.0115718064101, 0.
** <VonMises instance: 1 samples>
*MATERIAL, NAME=mat_142
*ELASTIC
  1.0, 0.3
*PLASTIC
  0.0132894107098, 0.
** <VonMises instance: 1 samples>
*MATERIAL, NAME=mat_143
*ELASTIC
  1.0, 0.3
*PLASTIC
  0.0161402234462, 0.
** <VonMises instance: 1 samples>
*MATERIAL, NAME=mat_144
*ELASTIC
  1.0, 0.3
*PLASTIC
  0.0133643731616, 0.
** <VonMises instance: 1 samples>
*MATERIAL, NAME=mat_145
*ELASTIC
  1.0, 0.3
*PLASTIC
  0.0221327089925, 0.
** <VonMises instance: 1 samples>
*MATERIAL, NAME=mat_146
*ELASTIC
  1.0, 0.3
*PLASTIC
  0.0110479788368, 0.
** <VonMises instance: 1 samples>
*MATERIAL, NAME=mat_147
*ELASTIC
  1.0, 0.3
*PLASTIC
  0.0104780827323, 0.
** <VonMises instance: 1 samples>
*MATERIAL, NAME=mat_148
*ELASTIC
  1.0, 0.3
*PLASTIC
  0.0132656153491, 0.
** <VonMises instance: 1 samples>
*MATERIAL, NAME=mat_149
*ELASTIC
  1.0, 0.3
*PLASTIC
  0.0076927948405, 0.
** <VonMises instance: 1 samples>
*MATERIAL, NAME=mat_150
*ELASTIC
  1.0, 0.3
*PLASTIC
  0.00567760600456, 0.
** <VonMises instance: 1 samples>
*MATERIAL, NAME=mat_151
*ELASTIC
  1.0, 0.3
*PLASTIC
  0.0171167896647, 0.
** <VonMises instance: 1 samples>
*MATERIAL, NAME=mat_152
*ELASTIC
  1.0, 0.3
*PLASTIC
  0.0201041528397, 0.
** <VonMises instance: 1 samples>
*MATERIAL, NAME=mat_153
*ELASTIC
  1.0, 0.3
*PLASTIC
  0.018599592189, 0.
** <VonMises instance: 1 samples>
*MATERIAL, NAME=mat_154
*ELASTIC
  1.0, 0.3
*PLASTIC
  0.0251549773962, 0.
** <VonMises instance: 1 samples>
*MATERIAL, NAME=mat_155
*ELASTIC
  1.0, 0.3
*PLASTIC
  0.0149348463286, 0.
** <VonMises instance: 1 samples>
*MATERIAL, NAME=mat_156
*ELASTIC
  1.0, 0.3
*PLASTIC
  0.0125908936769, 0.
** <VonMises instance: 1 samples>
*MATERIAL, NAME=mat_157
*ELASTIC
  1.0, 0.3
*PLASTIC
  0.00657708954943, 0.
** <VonMises instance: 1 samples>
*MATERIAL, NAME=mat_158
*ELASTIC
  1.0, 0.3
*PLASTIC
  0.0167167738833, 0.
** <VonMises instance: 1 samples>
*MATERIAL, NAME=mat_159
*ELASTIC
  1.0, 0.3
*PLASTIC
  0.00772961384929, 0.
** <VonMises instance: 1 samples>
*MATERIAL, NAME=mat_160
*ELASTIC
  1.0, 0.3
*PLASTIC
  0.00635043198803, 0.
** <VonMises instance: 1 samples>
*MATERIAL, NAME=mat_161
*ELASTIC
  1.0, 0.3
*PLASTIC
  0.0193548625768, 0.
** <VonMises instance: 1 samples>
*MATERIAL, NAME=mat_162
*ELASTIC
  1.0, 0.3
*PLASTIC
  0.00368954546131, 0.
** <VonMises instance: 1 samples>
*MATERIAL, NAME=mat_163
*ELASTIC
  1.0, 0.3
*PLASTIC
  0.00859190682305, 0.
** <VonMises instance: 1 samples>
*MATERIAL, NAME=mat_164
*ELASTIC
  1.0, 0.3
*PLASTIC
  0.0218394983888, 0.
** <VonMises instance: 1 samples>
*MATERIAL, NAME=mat_165
*ELASTIC
  1.0, 0.3
*PLASTIC
  0.0196136742943, 0.
** <VonMises instance: 1 samples>
*MATERIAL, NAME=mat_166
*ELASTIC
  1.0, 0.3
*PLASTIC
  0.00496638144316, 0.
** <VonMises instance: 1 samples>
*MATERIAL, NAME=mat_167
*ELASTIC
  1.0, 0.3
*PLASTIC
  0.0165782626305, 0.
** <VonMises instance: 1 samples>
*MATERIAL, NAME=mat_168
*ELASTIC
  1.0, 0.3
*PLASTIC
  0.0126428827081, 0.
** <VonMises instance: 1 samples>
*MATERIAL, NAME=mat_169
*ELASTIC
  1.0, 0.3
*PLASTIC
  0.0126541357588, 0.
** <VonMises instance: 1 samples>
*MATERIAL, NAME=mat_170
*ELASTIC
  1.0, 0.3
*PLASTIC
  0.015042408497, 0.
** <VonMises instance: 1 samples>
*MATERIAL, NAME=mat_171
*ELASTIC
  1.0, 0.3
*PLASTIC
  0.00660517873798, 0.
** <VonMises instance: 1 samples>
*MATERIAL, NAME=mat_172
*ELASTIC
  1.0, 0.3
*PLASTIC
  0.0107279057831, 0.
** <VonMises instance: 1 samples>
*MATERIAL, NAME=mat_173
*ELASTIC
  1.0, 0.3
*PLASTIC
  0.0150965693909, 0.
** <VonMises instance: 1 samples>
*MATERIAL, NAME=mat_174
*ELASTIC
  1.0, 0.3
*PLASTIC
  0.0153884465769, 0.
** <VonMises instance: 1 samples>
*MATERIAL, NAME=mat_175
*ELASTIC
  1.0, 0.3
*PLASTIC
  0.0239547680042, 0.
** <VonMises instance: 1 samples>
*MATERIAL, NAME=mat_176
*ELASTIC
  1.0, 0.3
*PLASTIC
  0.0105495603634, 0.
** <VonMises instance: 1 samples>
*MATERIAL, NAME=mat_177
*ELASTIC
  1.0, 0.3
*PLASTIC
  0.00848853035521, 0.
** <VonMises instance: 1 samples>
*MATERIAL, NAME=mat_178
*ELASTIC
  1.0, 0.3
*PLASTIC
  0.0297736478592, 0.
** <VonMises instance: 1 samples>
*MATERIAL, NAME=mat_179
*ELASTIC
  1.0, 0.3
*PLASTIC
  0.00437606818783, 0.
** <VonMises instance: 1 samples>
*MATERIAL, NAME=mat_180
*ELASTIC
  1.0, 0.3
*PLASTIC
  0.00552078134965, 0.
** <VonMises instance: 1 samples>
*MATERIAL, NAME=mat_181
*ELASTIC
  1.0, 0.3
*PLASTIC
  0.012573435654, 0.
** <VonMises instance: 1 samples>
*MATERIAL, NAME=mat_182
*ELASTIC
  1.0, 0.3
*PLASTIC
  0.00907965912345, 0.
** <VonMises instance: 1 samples>
*MATERIAL, NAME=mat_183
*ELASTIC
  1.0, 0.3
*PLASTIC
  0.0186658187325, 0.
** <VonMises instance: 1 samples>
*MATERIAL, NAME=mat_184
*ELASTIC
  1.0, 0.3
*PLASTIC
  0.00537914940339, 0.
** <VonMises instance: 1 samples>
*MATERIAL, NAME=mat_185
*ELASTIC
  1.0, 0.3
*PLASTIC
  0.012139863209, 0.
** <VonMises instance: 1 samples>
*MATERIAL, NAME=mat_186
*ELASTIC
  1.0, 0.3
*PLASTIC
  0.0150900161681, 0.
** <VonMises instance: 1 samples>
*MATERIAL, NAME=mat_187
*ELASTIC
  1.0, 0.3
*PLASTIC
  0.0258245108601, 0.
** <VonMises instance: 1 samples>
*MATERIAL, NAME=mat_188
*ELASTIC
  1.0, 0.3
*PLASTIC
  0.017174061451, 0.
** <VonMises instance: 1 samples>
*MATERIAL, NAME=mat_189
*ELASTIC
  1.0, 0.3
*PLASTIC
  0.00716711991268, 0.
** <VonMises instance: 1 samples>
*MATERIAL, NAME=mat_190
*ELASTIC
  1.0, 0.3
*PLASTIC
  0.0185642160089, 0.
** <VonMises instance: 1 samples>
*MATERIAL, NAME=mat_191
*ELASTIC
  1.0, 0.3
*PLASTIC
  0.0233344383579, 0.
** <VonMises instance: 1 samples>
*MATERIAL, NAME=mat_192
*ELASTIC
  1.0, 0.3
*PLASTIC
  0.0239661218006, 0.
** <VonMises instance: 1 samples>
*MATERIAL, NAME=mat_193
*ELASTIC
  1.0, 0.3
*PLASTIC
  0.0104807189187, 0.
** <VonMises instance: 1 samples>
*MATERIAL, NAME=mat_194
*ELASTIC
  1.0, 0.3
*PLASTIC
  0.00716617960597, 0.
** <VonMises instance: 1 samples>
*MATERIAL, NAME=mat_195
*ELASTIC
  1.0, 0.3
*PLASTIC
  0.0202549364039, 0.
** <VonMises instance: 1 samples>
*MATERIAL, NAME=mat_196
*ELASTIC
  1.0, 0.3
*PLASTIC
  0.0117026676292, 0.
** <VonMises instance: 1 samples>
*MATERIAL, NAME=mat_197
*ELASTIC
  1.0, 0.3
*PLASTIC
  0.0166796818645, 0.
** <VonMises instance: 1 samples>
*MATERIAL, NAME=mat_198
*ELASTIC
  1.0, 0.3
*PLASTIC
  0.00909747564576, 0.
** <VonMises instance: 1 samples>
*MATERIAL, NAME=mat_199
*ELASTIC
  1.0, 0.3
*PLASTIC
  0.0182785452467, 0.
** <VonMises instance: 1 samples>
*MATERIAL, NAME=mat_200
*ELASTIC
  1.0, 0.3
*PLASTIC
  0.00761658647177, 0.
** <VonMises instance: 1 samples>
*MATERIAL, NAME=mat_201
*ELASTIC
  1.0, 0.3
*PLASTIC
  0.0225834581124, 0.
** <VonMises instance: 1 samples>
*MATERIAL, NAME=mat_202
*ELASTIC
  1.0, 0.3
*PLASTIC
  0.0105478708755, 0.
** <VonMises instance: 1 samples>
*MATERIAL, NAME=mat_203
*ELASTIC
  1.0, 0.3
*PLASTIC
  0.0115136728401, 0.
** <VonMises instance: 1 samples>
*MATERIAL, NAME=mat_204
*ELASTIC
  1.0, 0.3
*PLASTIC
  0.00746434112842, 0.
** <VonMises instance: 1 samples>
*MATERIAL, NAME=mat_205
*ELASTIC
  1.0, 0.3
*PLASTIC
  0.0069503186485, 0.
** <VonMises instance: 1 samples>
*MATERIAL, NAME=mat_206
*ELASTIC
  1.0, 0.3
*PLASTIC
  0.0173580441305, 0.
** <VonMises instance: 1 samples>
*MATERIAL, NAME=mat_207
*ELASTIC
  1.0, 0.3
*PLASTIC
  0.0162664469972, 0.
** <VonMises instance: 1 samples>
*MATERIAL, NAME=mat_208
*ELASTIC
  1.0, 0.3
*PLASTIC
  0.0087675174441, 0.
** <VonMises instance: 1 samples>
*MATERIAL, NAME=mat_209
*ELASTIC
  1.0, 0.3
*PLASTIC
  0.00909438316227, 0.
** <VonMises instance: 1 samples>
*MATERIAL, NAME=mat_210
*ELASTIC
  1.0, 0.3
*PLASTIC
  0.0197978813345, 0.
** <VonMises instance: 1 samples>
*MATERIAL, NAME=mat_211
*ELASTIC
  1.0, 0.3
*PLASTIC
  0.016070262704, 0.
** <VonMises instance: 1 samples>
*MATERIAL, NAME=mat_212
*ELASTIC
  1.0, 0.3
*PLASTIC
  0.00956511707049, 0.
** <VonMises instance: 1 samples>
*MATERIAL, NAME=mat_213
*ELASTIC
  1.0, 0.3
*PLASTIC
  0.00586322033463, 0.
** <VonMises instance: 1 samples>
*MATERIAL, NAME=mat_214
*ELASTIC
  1.0, 0.3
*PLASTIC
  0.0092246204052, 0.
** <VonMises instance: 1 samples>
*MATERIAL, NAME=mat_215
*ELASTIC
  1.0, 0.3
*PLASTIC
  0.0054180629109, 0.
** <VonMises instance: 1 samples>
*MATERIAL, NAME=mat_216
*ELASTIC
  1.0, 0.3
*PLASTIC
  0.0149587133962, 0.
** <VonMises instance: 1 samples>
*MATERIAL, NAME=mat_217
*ELASTIC
  1.0, 0.3
*PLASTIC
  0.000991206361269, 0.
** <VonMises instance: 1 samples>
*MATERIAL, NAME=mat_218
*ELASTIC
  1.0, 0.3
*PLASTIC
  0.0126635238536, 0.
** <VonMises instance: 1 samples>
*MATERIAL, NAME=mat_219
*ELASTIC
  1.0, 0.3
*PLASTIC
  0.0151993160662, 0.
** <VonMises instance: 1 samples>
*MATERIAL, NAME=mat_220
*ELASTIC
  1.0, 0.3
*PLASTIC
  0.015794838362, 0.
** <VonMises instance: 1 samples>
*MATERIAL, NAME=mat_221
*ELASTIC
  1.0, 0.3
*PLASTIC
  0.0137948129368, 0.
** <VonMises instance: 1 samples>
*MATERIAL, NAME=mat_222
*ELASTIC
  1.0, 0.3
*PLASTIC
  0.0155433958822, 0.
** <VonMises instance: 1 samples>
*MATERIAL, NAME=mat_223
*ELASTIC
  1.0, 0.3
*PLASTIC
  0.0186378446695, 0.
** <VonMises instance: 1 samples>
*MATERIAL, NAME=mat_224
*ELASTIC
  1.0, 0.3
*PLASTIC
  0.0150139992209, 0.
** <VonMises instance: 1 samples>
*MATERIAL, NAME=mat_225
*ELASTIC
  1.0, 0.3
*PLASTIC
  0.00577307334796, 0.
** <VonMises instance: 1 samples>
*MATERIAL, NAME=mat_226
*ELASTIC
  1.0, 0.3
*PLASTIC
  0.0142730455854, 0.
** <VonMises instance: 1 samples>
*MATERIAL, NAME=mat_227
*ELASTIC
  1.0, 0.3
*PLASTIC
  0.00909375749251, 0.
** <VonMises instance: 1 samples>
*MATERIAL, NAME=mat_228
*ELASTIC
  1.0, 0.3
*PLASTIC
  0.00971594489221, 0.
** <VonMises instance: 1 samples>
*MATERIAL, NAME=mat_229
*ELASTIC
  1.0, 0.3
*PLASTIC
  0.0102162964541, 0.
** <VonMises instance: 1 samples>
*MATERIAL, NAME=mat_230
*ELASTIC
  1.0, 0.3
*PLASTIC
  0.00931891749235, 0.
** <VonMises instance: 1 samples>
*MATERIAL, NAME=mat_231
*ELASTIC
  1.0, 0.3
*PLASTIC
  0.0157984710871, 0.
** <VonMises instance: 1 samples>
*MATERIAL, NAME=mat_232
*ELASTIC
  1.0, 0.3
*PLASTIC
  0.00682754320194, 0.
** <VonMises instance: 1 samples>
*MATERIAL, NAME=mat_233
*ELASTIC
  1.0, 0.3
*PLASTIC
  0.0111562936245, 0.
** <VonMises instance: 1 samples>
*MATERIAL, NAME=mat_234
*ELASTIC
  1.0, 0.3
*PLASTIC
  0.00260847821981, 0.
** <VonMises instance: 1 samples>
*MATERIAL, NAME=mat_235
*ELASTIC
  1.0, 0.3
*PLASTIC
  0.00539531510943, 0.
** <VonMises instance: 1 samples>
*MATERIAL, NAME=mat_236
*ELASTIC
  1.0, 0.3
*PLASTIC
  0.00717999504538, 0.
** <VonMises instance: 1 samples>
*MATERIAL, NAME=mat_237
*ELASTIC
  1.0, 0.3
*PLASTIC
  0.023051976538, 0.
** <VonMises instance: 1 samples>
*MATERIAL, NAME=mat_238
*ELASTIC
  1.0, 0.3
*PLASTIC
  0.00452999519482, 0.
** <VonMises instance: 1 samples>
*MATERIAL, NAME=mat_239
*ELASTIC
  1.0, 0.3
*PLASTIC
  0.0192411012229, 0.
** <VonMises instance: 1 samples>
*MATERIAL, NAME=mat_240
*ELASTIC
  1.0, 0.3
*PLASTIC
  0.0170410117739, 0.
** <VonMises instance: 1 samples>
*MATERIAL, NAME=mat_241
*ELASTIC
  1.0, 0.3
*PLASTIC
  0.00206971812048, 0.
** <VonMises instance: 1 samples>
*MATERIAL, NAME=mat_242
*ELASTIC
  1.0, 0.3
*PLASTIC
  0.0168417343994, 0.
** <VonMises instance: 1 samples>
*MATERIAL, NAME=mat_243
*ELASTIC
  1.0, 0.3
*PLASTIC
  0.0199237414681, 0.
** <VonMises instance: 1 samples>
*MATERIAL, NAME=mat_244
*ELASTIC
  1.0, 0.3
*PLASTIC
  0.00471112090989, 0.
** <VonMises instance: 1 samples>
*MATERIAL, NAME=mat_245
*ELASTIC
  1.0, 0.3
*PLASTIC
  0.0151590491931, 0.
** <VonMises instance: 1 samples>
*MATERIAL, NAME=mat_246
*ELASTIC
  1.0, 0.3
*PLASTIC
  0.0160671280267, 0.
** <VonMises instance: 1 samples>
*MATERIAL, NAME=mat_247
*ELASTIC
  1.0, 0.3
*PLASTIC
  0.0069794029448, 0.
** <VonMises instance: 1 samples>
*MATERIAL, NAME=mat_248
*ELASTIC
  1.0, 0.3
*PLASTIC
  0.0129130770299, 0.
** <VonMises instance: 1 samples>
*MATERIAL, NAME=mat_249
*ELASTIC
  1.0, 0.3
*PLASTIC
  0.0106325595837, 0.
** <VonMises instance: 1 samples>
*MATERIAL, NAME=mat_250
*ELASTIC
  1.0, 0.3
*PLASTIC
  0.00688971980112, 0.
** <VonMises instance: 1 samples>
*MATERIAL, NAME=mat_251
*ELASTIC
  1.0, 0.3
*PLASTIC
  0.00867536376622, 0.
** <VonMises instance: 1 samples>
*MATERIAL, NAME=mat_252
*ELASTIC
  1.0, 0.3
*PLASTIC
  0.0062338204876, 0.
** <VonMises instance: 1 samples>
*MATERIAL, NAME=mat_253
*ELASTIC
  1.0, 0.3
*PLASTIC
  0.017263901244, 0.
** <VonMises instance: 1 samples>
*MATERIAL, NAME=mat_254
*ELASTIC
  1.0, 0.3
*PLASTIC
  0.0146976783678, 0.
** <VonMises instance: 1 samples>
*MATERIAL, NAME=mat_255
*ELASTIC
  1.0, 0.3
*PLASTIC
  0.0376460201213, 0.
** <VonMises instance: 1 samples>
*MATERIAL, NAME=mat_256
*ELASTIC
  1.0, 0.3
*PLASTIC
  0.0100511623046, 0.
** <VonMises instance: 1 samples>
*MATERIAL, NAME=mat_257
*ELASTIC
  1.0, 0.3
*PLASTIC
  0.0123963773419, 0.
** <VonMises instance: 1 samples>
*MATERIAL, NAME=mat_258
*ELASTIC
  1.0, 0.3
*PLASTIC
  0.0166737474284, 0.
** <VonMises instance: 1 samples>
*MATERIAL, NAME=mat_259
*ELASTIC
  1.0, 0.3
*PLASTIC
  0.0205640122638, 0.
** <VonMises instance: 1 samples>
*MATERIAL, NAME=mat_260
*ELASTIC
  1.0, 0.3
*PLASTIC
  0.0140340768651, 0.
** <VonMises instance: 1 samples>
*MATERIAL, NAME=mat_261
*ELASTIC
  1.0, 0.3
*PLASTIC
  0.0141683093436, 0.
** <VonMises instance: 1 samples>
*MATERIAL, NAME=mat_262
*ELASTIC
  1.0, 0.3
*PLASTIC
  0.0124455351599, 0.
** <VonMises instance: 1 samples>
*MATERIAL, NAME=mat_263
*ELASTIC
  1.0, 0.3
*PLASTIC
  0.0227751335346, 0.
** <VonMises instance: 1 samples>
*MATERIAL, NAME=mat_264
*ELASTIC
  1.0, 0.3
*PLASTIC
  0.0216833796484, 0.
** <VonMises instance: 1 samples>
*MATERIAL, NAME=mat_265
*ELASTIC
  1.0, 0.3
*PLASTIC
  0.0147813569676, 0.
** <VonMises instance: 1 samples>
*MATERIAL, NAME=mat_266
*ELASTIC
  1.0, 0.3
*PLASTIC
  0.005580282915, 0.
** <VonMises instance: 1 samples>
*MATERIAL, NAME=mat_267
*ELASTIC
  1.0, 0.3
*PLASTIC
  0.00791068528565, 0.
** <VonMises instance: 1 samples>
*MATERIAL, NAME=mat_268
*ELASTIC
  1.0, 0.3
*PLASTIC
  0.0132222270136, 0.
** <VonMises instance: 1 samples>
*MATERIAL, NAME=mat_269
*ELASTIC
  1.0, 0.3
*PLASTIC
  0.00489281729063, 0.
** <VonMises instance: 1 samples>
*MATERIAL, NAME=mat_270
*ELASTIC
  1.0, 0.3
*PLASTIC
  0.00610302425435, 0.
** <VonMises instance: 1 samples>
*MATERIAL, NAME=mat_271
*ELASTIC
  1.0, 0.3
*PLASTIC
  0.00888542016574, 0.
** <VonMises instance: 1 samples>
*MATERIAL, NAME=mat_272
*ELASTIC
  1.0, 0.3
*PLASTIC
  0.0128630173134, 0.
** <VonMises instance: 1 samples>
*MATERIAL, NAME=mat_273
*ELASTIC
  1.0, 0.3
*PLASTIC
  0.0068225042149, 0.
** <VonMises instance: 1 samples>
*MATERIAL, NAME=mat_274
*ELASTIC
  1.0, 0.3
*PLASTIC
  0.0175662890587, 0.
** <VonMises instance: 1 samples>
*MATERIAL, NAME=mat_275
*ELASTIC
  1.0, 0.3
*PLASTIC
  0.0308088391882, 0.
** <VonMises instance: 1 samples>
*MATERIAL, NAME=mat_276
*ELASTIC
  1.0, 0.3
*PLASTIC
  0.0133194633517, 0.
** <VonMises instance: 1 samples>
*MATERIAL, NAME=mat_277
*ELASTIC
  1.0, 0.3
*PLASTIC
  0.0161099396061, 0.
** <VonMises instance: 1 samples>
*MATERIAL, NAME=mat_278
*ELASTIC
  1.0, 0.3
*PLASTIC
  0.0158932155216, 0.
** <VonMises instance: 1 samples>
*MATERIAL, NAME=mat_279
*ELASTIC
  1.0, 0.3
*PLASTIC
  0.0155125151292, 0.
** <VonMises instance: 1 samples>
*MATERIAL, NAME=mat_280
*ELASTIC
  1.0, 0.3
*PLASTIC
  0.019332286217, 0.
** <VonMises instance: 1 samples>
*MATERIAL, NAME=mat_281
*ELASTIC
  1.0, 0.3
*PLASTIC
  0.0154778174189, 0.
** <VonMises instance: 1 samples>
*MATERIAL, NAME=mat_282
*ELASTIC
  1.0, 0.3
*PLASTIC
  0.00654778148523, 0.
** <VonMises instance: 1 samples>
*MATERIAL, NAME=mat_283
*ELASTIC
  1.0, 0.3
*PLASTIC
  0.00304047269289, 0.
** <VonMises instance: 1 samples>
*MATERIAL, NAME=mat_284
*ELASTIC
  1.0, 0.3
*PLASTIC
  0.0174070558594, 0.
** <VonMises instance: 1 samples>
*MATERIAL, NAME=mat_285
*ELASTIC
  1.0, 0.3
*PLASTIC
  0.00813072006732, 0.
** <VonMises instance: 1 samples>
*MATERIAL, NAME=mat_286
*ELASTIC
  1.0, 0.3
*PLASTIC
  0.00473326453698, 0.
** <VonMises instance: 1 samples>
*MATERIAL, NAME=mat_287
*ELASTIC
  1.0, 0.3
*PLASTIC
  0.0156911097568, 0.
** <VonMises instance: 1 samples>
*MATERIAL, NAME=mat_288
*ELASTIC
  1.0, 0.3
*PLASTIC
  0.00984306730781, 0.
** <VonMises instance: 1 samples>
*MATERIAL, NAME=mat_289
*ELASTIC
  1.0, 0.3
*PLASTIC
  0.00717695610477, 0.
** <VonMises instance: 1 samples>
*MATERIAL, NAME=mat_290
*ELASTIC
  1.0, 0.3
*PLASTIC
  0.0137643048438, 0.
** <VonMises instance: 1 samples>
*MATERIAL, NAME=mat_291
*ELASTIC
  1.0, 0.3
*PLASTIC
  0.0295069472177, 0.
** <VonMises instance: 1 samples>
*MATERIAL, NAME=mat_292
*ELASTIC
  1.0, 0.3
*PLASTIC
  0.0126353463201, 0.
** <VonMises instance: 1 samples>
*MATERIAL, NAME=mat_293
*ELASTIC
  1.0, 0.3
*PLASTIC
  0.0101473267654, 0.
** <VonMises instance: 1 samples>
*MATERIAL, NAME=mat_294
*ELASTIC
  1.0, 0.3
*PLASTIC
  0.0137070456436, 0.
** <VonMises instance: 1 samples>
*MATERIAL, NAME=mat_295
*ELASTIC
  1.0, 0.3
*PLASTIC
  0.00956666974807, 0.
** <VonMises instance: 1 samples>
*MATERIAL, NAME=mat_296
*ELASTIC
  1.0, 0.3
*PLASTIC
  0.027046292462, 0.
** <VonMises instance: 1 samples>
*MATERIAL, NAME=mat_297
*ELASTIC
  1.0, 0.3
*PLASTIC
  0.0219338742826, 0.
** <VonMises instance: 1 samples>
*MATERIAL, NAME=mat_298
*ELASTIC
  1.0, 0.3
*PLASTIC
  0.010860488944, 0.
** <VonMises instance: 1 samples>
*MATERIAL, NAME=mat_299
*ELASTIC
  1.0, 0.3
*PLASTIC
  0.00258749481165, 0.
** <VonMises instance: 1 samples>
*MATERIAL, NAME=mat_300
*ELASTIC
  1.0, 0.3
*PLASTIC
  0.0133628178362, 0.
** <VonMises instance: 1 samples>
*MATERIAL, NAME=mat_301
*ELASTIC
  1.0, 0.3
*PLASTIC
  0.0140944140824, 0.
** <VonMises instance: 1 samples>
*MATERIAL, NAME=mat_302
*ELASTIC
  1.0, 0.3
*PLASTIC
  0.00844941902648, 0.
** <VonMises instance: 1 samples>
*MATERIAL, NAME=mat_303
*ELASTIC
  1.0, 0.3
*PLASTIC
  0.00837466162381, 0.
** <VonMises instance: 1 samples>
*MATERIAL, NAME=mat_304
*ELASTIC
  1.0, 0.3
*PLASTIC
  0.0289625144689, 0.
** <VonMises instance: 1 samples>
*MATERIAL, NAME=mat_305
*ELASTIC
  1.0, 0.3
*PLASTIC
  0.00886442500885, 0.
** <VonMises instance: 1 samples>
*MATERIAL, NAME=mat_306
*ELASTIC
  1.0, 0.3
*PLASTIC
  0.0145955364095, 0.
** <VonMises instance: 1 samples>
*MATERIAL, NAME=mat_307
*ELASTIC
  1.0, 0.3
*PLASTIC
  0.0139666884471, 0.
** <VonMises instance: 1 samples>
*MATERIAL, NAME=mat_308
*ELASTIC
  1.0, 0.3
*PLASTIC
  0.00959547429425, 0.
** <VonMises instance: 1 samples>
*MATERIAL, NAME=mat_309
*ELASTIC
  1.0, 0.3
*PLASTIC
  0.000152396724995, 0.
** <VonMises instance: 1 samples>
*MATERIAL, NAME=mat_310
*ELASTIC
  1.0, 0.3
*PLASTIC
  0.0141779978809, 0.
** <VonMises instance: 1 samples>
*MATERIAL, NAME=mat_311
*ELASTIC
  1.0, 0.3
*PLASTIC
  0.0121083520346, 0.
** <VonMises instance: 1 samples>
*MATERIAL, NAME=mat_312
*ELASTIC
  1.0, 0.3
*PLASTIC
  0.0197726482592, 0.
** <VonMises instance: 1 samples>
*MATERIAL, NAME=mat_313
*ELASTIC
  1.0, 0.3
*PLASTIC
  0.0142451592359, 0.
** <VonMises instance: 1 samples>
*MATERIAL, NAME=mat_314
*ELASTIC
  1.0, 0.3
*PLASTIC
  0.011194381736, 0.
** <VonMises instance: 1 samples>
*MATERIAL, NAME=mat_315
*ELASTIC
  1.0, 0.3
*PLASTIC
  0.0182083136329, 0.
** <VonMises instance: 1 samples>
*MATERIAL, NAME=mat_316
*ELASTIC
  1.0, 0.3
*PLASTIC
  0.00946038175846, 0.
** <VonMises instance: 1 samples>
*MATERIAL, NAME=mat_317
*ELASTIC
  1.0, 0.3
*PLASTIC
  0.0053932031925, 0.
** <VonMises instance: 1 samples>
*MATERIAL, NAME=mat_318
*ELASTIC
  1.0, 0.3
*PLASTIC
  0.014373560321, 0.
** <VonMises instance: 1 samples>
*MATERIAL, NAME=mat_319
*ELASTIC
  1.0, 0.3
*PLASTIC
  0.0102132234966, 0.
** <VonMises instance: 1 samples>
*MATERIAL, NAME=mat_320
*ELASTIC
  1.0, 0.3
*PLASTIC
  0.0102801026581, 0.
** <VonMises instance: 1 samples>
*MATERIAL, NAME=mat_321
*ELASTIC
  1.0, 0.3
*PLASTIC
  0.0157627938998, 0.
** <VonMises instance: 1 samples>
*MATERIAL, NAME=mat_322
*ELASTIC
  1.0, 0.3
*PLASTIC
  0.00864501313984, 0.
** <VonMises instance: 1 samples>
*MATERIAL, NAME=mat_323
*ELASTIC
  1.0, 0.3
*PLASTIC
  0.0112576954923, 0.
** <VonMises instance: 1 samples>
*MATERIAL, NAME=mat_324
*ELASTIC
  1.0, 0.3
*PLASTIC
  0.00148445374072, 0.
** <VonMises instance: 1 samples>
*MATERIAL, NAME=mat_325
*ELASTIC
  1.0, 0.3
*PLASTIC
  0.015388340927, 0.
** <VonMises instance: 1 samples>
*MATERIAL, NAME=mat_326
*ELASTIC
  1.0, 0.3
*PLASTIC
  0.00593381512195, 0.
** <VonMises instance: 1 samples>
*MATERIAL, NAME=mat_327
*ELASTIC
  1.0, 0.3
*PLASTIC
  0.0204729103362, 0.
** <VonMises instance: 1 samples>
*MATERIAL, NAME=mat_328
*ELASTIC
  1.0, 0.3
*PLASTIC
  0.0196170440892, 0.
** <VonMises instance: 1 samples>
*MATERIAL, NAME=mat_329
*ELASTIC
  1.0, 0.3
*PLASTIC
  0.0186932631803, 0.
** <VonMises instance: 1 samples>
*MATERIAL, NAME=mat_330
*ELASTIC
  1.0, 0.3
*PLASTIC
  0.022182616781, 0.
** <VonMises instance: 1 samples>
*MATERIAL, NAME=mat_331
*ELASTIC
  1.0, 0.3
*PLASTIC
  0.0106795322318, 0.
** <VonMises instance: 1 samples>
*MATERIAL, NAME=mat_332
*ELASTIC
  1.0, 0.3
*PLASTIC
  0.00928062331389, 0.
** <VonMises instance: 1 samples>
*MATERIAL, NAME=mat_333
*ELASTIC
  1.0, 0.3
*PLASTIC
  0.0116622373308, 0.
** <VonMises instance: 1 samples>
*MATERIAL, NAME=mat_334
*ELASTIC
  1.0, 0.3
*PLASTIC
  0.0203260606156, 0.
** <VonMises instance: 1 samples>
*MATERIAL, NAME=mat_335
*ELASTIC
  1.0, 0.3
*PLASTIC
  0.00866203588016, 0.
** <VonMises instance: 1 samples>
*MATERIAL, NAME=mat_336
*ELASTIC
  1.0, 0.3
*PLASTIC
  0.030124506493, 0.
** <VonMises instance: 1 samples>
*MATERIAL, NAME=mat_337
*ELASTIC
  1.0, 0.3
*PLASTIC
  0.0162904267331, 0.
** <VonMises instance: 1 samples>
*MATERIAL, NAME=mat_338
*ELASTIC
  1.0, 0.3
*PLASTIC
  0.0254598584071, 0.
** <VonMises instance: 1 samples>
*MATERIAL, NAME=mat_339
*ELASTIC
  1.0, 0.3
*PLASTIC
  0.0124632463739, 0.
** <VonMises instance: 1 samples>
*MATERIAL, NAME=mat_340
*ELASTIC
  1.0, 0.3
*PLASTIC
  0.0143292209425, 0.
** <VonMises instance: 1 samples>
*MATERIAL, NAME=mat_341
*ELASTIC
  1.0, 0.3
*PLASTIC
  0.00545053189436, 0.
** <VonMises instance: 1 samples>
*MATERIAL, NAME=mat_342
*ELASTIC
  1.0, 0.3
*PLASTIC
  0.0192083724482, 0.
** <VonMises instance: 1 samples>
*MATERIAL, NAME=mat_343
*ELASTIC
  1.0, 0.3
*PLASTIC
  0.0132178588323, 0.
** <VonMises instance: 1 samples>
*MATERIAL, NAME=mat_344
*ELASTIC
  1.0, 0.3
*PLASTIC
  0.0110086098768, 0.
** <VonMises instance: 1 samples>
*MATERIAL, NAME=mat_345
*ELASTIC
  1.0, 0.3
*PLASTIC
  0.00950145696047, 0.
** <VonMises instance: 1 samples>
*MATERIAL, NAME=mat_346
*ELASTIC
  1.0, 0.3
*PLASTIC
  0.0200555745859, 0.
** <VonMises instance: 1 samples>
*MATERIAL, NAME=mat_347
*ELASTIC
  1.0, 0.3
*PLASTIC
  0.0150124650149, 0.
** <VonMises instance: 1 samples>
*MATERIAL, NAME=mat_348
*ELASTIC
  1.0, 0.3
*PLASTIC
  0.011974321132, 0.
** <VonMises instance: 1 samples>
*MATERIAL, NAME=mat_349
*ELASTIC
  1.0, 0.3
*PLASTIC
  0.0162284935959, 0.
** <VonMises instance: 1 samples>
*MATERIAL, NAME=mat_350
*ELASTIC
  1.0, 0.3
*PLASTIC
  0.0095052532244, 0.
** <VonMises instance: 1 samples>
*MATERIAL, NAME=mat_351
*ELASTIC
  1.0, 0.3
*PLASTIC
  0.0140015147681, 0.
** <VonMises instance: 1 samples>
*MATERIAL, NAME=mat_352
*ELASTIC
  1.0, 0.3
*PLASTIC
  0.0141548721064, 0.
** <VonMises instance: 1 samples>
*MATERIAL, NAME=mat_353
*ELASTIC
  1.0, 0.3
*PLASTIC
  0.00308814880916, 0.
** <VonMises instance: 1 samples>
*MATERIAL, NAME=mat_354
*ELASTIC
  1.0, 0.3
*PLASTIC
  0.0165345935865, 0.
** <VonMises instance: 1 samples>
*MATERIAL, NAME=mat_355
*ELASTIC
  1.0, 0.3
*PLASTIC
  0.0243794062417, 0.
** <VonMises instance: 1 samples>
*MATERIAL, NAME=mat_356
*ELASTIC
  1.0, 0.3
*PLASTIC
  0.00166004018986, 0.
** <VonMises instance: 1 samples>
*MATERIAL, NAME=mat_357
*ELASTIC
  1.0, 0.3
*PLASTIC
  0.0255590084846, 0.
** <VonMises instance: 1 samples>
*MATERIAL, NAME=mat_358
*ELASTIC
  1.0, 0.3
*PLASTIC
  0.018498347121, 0.
** <VonMises instance: 1 samples>
*MATERIAL, NAME=mat_359
*ELASTIC
  1.0, 0.3
*PLASTIC
  0.0065017984532, 0.
** <VonMises instance: 1 samples>
*MATERIAL, NAME=mat_360
*ELASTIC
  1.0, 0.3
*PLASTIC
  0.0269662270165, 0.
** <VonMises instance: 1 samples>
*MATERIAL, NAME=mat_361
*ELASTIC
  1.0, 0.3
*PLASTIC
  0.00922059256454, 0.
** <VonMises instance: 1 samples>
*MATERIAL, NAME=mat_362
*ELASTIC
  1.0, 0.3
*PLASTIC
  0.00972151618699, 0.
** <VonMises instance: 1 samples>
*MATERIAL, NAME=mat_363
*ELASTIC
  1.0, 0.3
*PLASTIC
  0.015643933174, 0.
** <VonMises instance: 1 samples>
*MATERIAL, NAME=mat_364
*ELASTIC
  1.0, 0.3
*PLASTIC
  0.0038860369839, 0.
** <VonMises instance: 1 samples>
*MATERIAL, NAME=mat_365
*ELASTIC
  1.0, 0.3
*PLASTIC
  0.00990976280954, 0.
** <VonMises instance: 1 samples>
*MATERIAL, NAME=mat_366
*ELASTIC
  1.0, 0.3
*PLASTIC
  0.00695277699812, 0.
** <VonMises instance: 1 samples>
*MATERIAL, NAME=mat_367
*ELASTIC
  1.0, 0.3
*PLASTIC
  0.00827780895195, 0.
** <VonMises instance: 1 samples>
*MATERIAL, NAME=mat_368
*ELASTIC
  1.0, 0.3
*PLASTIC
  0.0100579822874, 0.
** <VonMises instance: 1 samples>
*MATERIAL, NAME=mat_369
*ELASTIC
  1.0, 0.3
*PLASTIC
  0.0169059465054, 0.
** <VonMises instance: 1 samples>
*MATERIAL, NAME=mat_370
*ELASTIC
  1.0, 0.3
*PLASTIC
  0.00765544963821, 0.
** <VonMises instance: 1 samples>
*MATERIAL, NAME=mat_371
*ELASTIC
  1.0, 0.3
*PLASTIC
  0.0124112935524, 0.
** <VonMises instance: 1 samples>
*MATERIAL, NAME=mat_372
*ELASTIC
  1.0, 0.3
*PLASTIC
  0.0226127611402, 0.
** <VonMises instance: 1 samples>
*MATERIAL, NAME=mat_373
*ELASTIC
  1.0, 0.3
*PLASTIC
  0.0132439410315, 0.
** <VonMises instance: 1 samples>
*MATERIAL, NAME=mat_374
*ELASTIC
  1.0, 0.3
*PLASTIC
  0.00800522008818, 0.
** <VonMises instance: 1 samples>
*MATERIAL, NAME=mat_375
*ELASTIC
  1.0, 0.3
*PLASTIC
  0.00733230100127, 0.
** <VonMises instance: 1 samples>
*MATERIAL, NAME=mat_376
*ELASTIC
  1.0, 0.3
*PLASTIC
  0.0120506477351, 0.
** <VonMises instance: 1 samples>
*MATERIAL, NAME=mat_377
*ELASTIC
  1.0, 0.3
*PLASTIC
  0.00627604458683, 0.
** <VonMises instance: 1 samples>
*MATERIAL, NAME=mat_378
*ELASTIC
  1.0, 0.3
*PLASTIC
  0.00923138064982, 0.
** <VonMises instance: 1 samples>
*MATERIAL, NAME=mat_379
*ELASTIC
  1.0, 0.3
*PLASTIC
  0.0194716136889, 0.
** <VonMises instance: 1 samples>
*MATERIAL, NAME=mat_380
*ELASTIC
  1.0, 0.3
*PLASTIC
  0.00614170586018, 0.
** <VonMises instance: 1 samples>
*MATERIAL, NAME=mat_381
*ELASTIC
  1.0, 0.3
*PLASTIC
  0.0194697397812, 0.
** <VonMises instance: 1 samples>
*MATERIAL, NAME=mat_382
*ELASTIC
  1.0, 0.3
*PLASTIC
  0.00382580273914, 0.
** <VonMises instance: 1 samples>
*MATERIAL, NAME=mat_383
*ELASTIC
  1.0, 0.3
*PLASTIC
  0.00339448723472, 0.
** <VonMises instance: 1 samples>
*MATERIAL, NAME=mat_384
*ELASTIC
  1.0, 0.3
*PLASTIC
  0.0135623727416, 0.
** <VonMises instance: 1 samples>
*MATERIAL, NAME=mat_385
*ELASTIC
  1.0, 0.3
*PLASTIC
  0.0166730012069, 0.
** <VonMises instance: 1 samples>
*MATERIAL, NAME=mat_386
*ELASTIC
  1.0, 0.3
*PLASTIC
  0.00934955334384, 0.
** <VonMises instance: 1 samples>
*MATERIAL, NAME=mat_387
*ELASTIC
  1.0, 0.3
*PLASTIC
  0.00757657902266, 0.
** <VonMises instance: 1 samples>
*MATERIAL, NAME=mat_388
*ELASTIC
  1.0, 0.3
*PLASTIC
  0.0114983287096, 0.
** <VonMises instance: 1 samples>
*MATERIAL, NAME=mat_389
*ELASTIC
  1.0, 0.3
*PLASTIC
  0.0101637030387, 0.
** <VonMises instance: 1 samples>
*MATERIAL, NAME=mat_390
*ELASTIC
  1.0, 0.3
*PLASTIC
  0.0134645091267, 0.
** <VonMises instance: 1 samples>
*MATERIAL, NAME=mat_391
*ELASTIC
  1.0, 0.3
*PLASTIC
  0.0142379722173, 0.
** <VonMises instance: 1 samples>
*MATERIAL, NAME=mat_392
*ELASTIC
  1.0, 0.3
*PLASTIC
  0.00622207285745, 0.
** <VonMises instance: 1 samples>
*MATERIAL, NAME=mat_393
*ELASTIC
  1.0, 0.3
*PLASTIC
  0.00812174423346, 0.
** <VonMises instance: 1 samples>
*MATERIAL, NAME=mat_394
*ELASTIC
  1.0, 0.3
*PLASTIC
  0.0306482958018, 0.
** <VonMises instance: 1 samples>
*MATERIAL, NAME=mat_395
*ELASTIC
  1.0, 0.3
*PLASTIC
  0.00393452900717, 0.
** <VonMises instance: 1 samples>
*MATERIAL, NAME=mat_396
*ELASTIC
  1.0, 0.3
*PLASTIC
  0.0152424594725, 0.
** <VonMises instance: 1 samples>
*MATERIAL, NAME=mat_397
*ELASTIC
  1.0, 0.3
*PLASTIC
  0.0128639734542, 0.
** <VonMises instance: 1 samples>
*MATERIAL, NAME=mat_398
*ELASTIC
  1.0, 0.3
*PLASTIC
  0.00997157515988, 0.
** <VonMises instance: 1 samples>
*MATERIAL, NAME=mat_399
*ELASTIC
  1.0, 0.3
*PLASTIC
  0.0090560003704, 0.
** <VonMises instance: 1 samples>
*MATERIAL, NAME=mat_400
*ELASTIC
  1.0, 0.3
*PLASTIC
  0.0157903377252, 0.
**----------------------------------
** STEPS
*Step, Name=Loading0, Nlgeom=YES, Inc=1000000
*Static
0.01, 1, 1e-08, 0.01
** BOUNDARY CONDITIONS
*Boundary
iSample.Bottom, 2, 2
iSample.BottomLeft, 1, 1
iSample.Top,    2, 2, 0.1
** RESTART OPTIONS 
*Restart, write, frequency=0
** FIELD OUTPUTS
*Output, field, frequency=999999
*Node Output
U
*Element Output, directions=YES
E, PE, EE, PEEQ, S
** HYSTORY OUTPUTS
*Output, history
*Energy Output
ALLPD, ALLSE, ALLWK
*Node Output, nset=iSample.Top
RF2
*Node Output, nset=iSample.TopLeft
U2
*Node Output, nset=iSample.Left
COOR1
*Node Output, nset=iSample.Right
COOR1
*Element Output, elset=iSample.allElements, directions=NO
EVOL
*End Step
  